&aerosol_convproc_opts
 convproc_do_evaprain_atonce		= .true.
 convproc_pom_spechygro		= 0.2D0
 convproc_wup_max		= 4.0D0
/
&aerosol_nl
 aer_drydep_list		= 'bc_a1', 'bc_a4', 'dst_a1', 'dst_a2', 'dst_a3', 'ncl_a1', 'ncl_a2', 'ncl_a3', 'num_a1', 'num_a2',
         'num_a3', 'num_a4', 'pom_a1', 'pom_a4', 'so4_a1', 'so4_a2', 'so4_a3', 'soa1_a1', 'soa1_a2', 'soa2_a1',
         'soa2_a2', 'soa3_a1', 'soa3_a2', 'soa4_a1', 'soa4_a2', 'soa5_a1', 'soa5_a2'
 aer_wetdep_list		= 'bc_a1', 'bc_a4', 'dst_a1', 'dst_a2', 'dst_a3', 'ncl_a1', 'ncl_a2', 'ncl_a3', 'num_a1', 'num_a2',
         'num_a3', 'num_a4', 'pom_a1', 'pom_a4', 'so4_a1', 'so4_a2', 'so4_a3', 'soa1_a1', 'soa1_a2', 'soa2_a1',
         'soa2_a2', 'soa3_a1', 'soa3_a2', 'soa4_a1', 'soa4_a2', 'soa5_a1', 'soa5_a2'
 modal_accum_coarse_exch		= .true.
 modal_strat_sulfate		= .true.
 seasalt_emis_scale		= 1.00D0
 sol_factb_interstitial		= 0.1D0
 sol_facti_cloud_borne		= 1.0D0
 sol_factic_interstitial		= 0.4D0
/
&air_composition_nl
 dry_air_species		= ''
 water_species_in_air		= 'Q','CLDLIQ','CLDICE','RAINQM','SNOWQM'
/
&blj_nl
 do_beljaars		=  .true.  
/
&cam_history_nl
 avgflag_pertape		= 'A', 'A', 'A', 'A', 'A', 'A', 'A', 'A', 'I'
 fexcl1		= ' '
 fincl1		= 'U', 'V', 'Q', 'T', 'PSL', 'OMEGA', 'PS', 'PRECC', 'PRECL', 'UTGWORO', 'VTGWORO', 'TS',
         'TAUX', 'TAUY', 'TAUBLJX', 'TAUBLJY', 'TAUGWX', 'TAUGWY', 'FLNT', 'FLNS', 'FSNS', 'FSNT', 'LHFLX', 'SHFLX',
         'TMQ', 'FLDS', 'FSDS', 'FSDSC', 'SWCF', 'LWCF', 'PRECSC', 'PRECSL', 'DTCOND', 'Z3', 'PSL', 'PBLH',
         'ZMDT', 'ZMDQ', 'STEND_CLUBB', 'RVMTEND_CLUBB', 'ZMDQ', 'CMFMC_DP', 'DPDLFLIQ', 'DPDLFICE', 'PCLDTOP', 'CLDTOP', 'KVH_CLUBB', 'DTCORE',
         'PTEQ', 'DCQ', 'QTGW', 'CT_H2O', 'DCQ', 'MPDQ', 'NO3', 'O3', 'OH', 'HO2', 'NO', 'NO2',
         'HNO3', 'CO', 'CH4', 'N2O', 'N2O5', 'H2O', 'CH4', 'CH4_CHML', 'CFC113', 'CFC114', 'CFC115', 'CCL4',
         'CH3CCL3', 'CH3CL', 'HCFC22', 'HCFC141B', 'HCFC142B', 'CF2CLBR', 'CF3BR', 'H2402'
 fincl2		= 'TROP_T', 'TROP_P', 'Q', 'T', 'U850', 'V850', 'U200', 'PRECT', 'PRECC', 'PRECL', 'PBLH', 'OMEGA500',
         'FLUT', 'Z500', 'T500', 'PS', 'PMID:I', 'TREFHTMN:M', 'TREFHTMX:X', 'TSMN:M', 'TSMX:X', 'PBLH', 'ZMDT', 'ZMDQ',
         'STEND_CLUBB', 'RVMTEND_CLUBB', 'PRECT', 'PRECL', 'U200', 'V200', 'U850', 'V850', 'FLUT', 'Z500', 'TREFHT', 'TS',
         'CLDTOT', 'SWCF', 'LWCF', 'PS', 'PSL', 'TMQ', 'LHFLX', 'SHFLX', 'T500', 'OMEGA500', 'CLDLOW', 'CT_CO',
         'VDCO', 'TACO', 'CT_H2O', 'VD01', 'TAQ', 'CT_O3', 'VDO3', 'TAO3', 'CT_O3S', 'VDO3S', 'TAO3S'
 fincl3		= 'U:I', 'V:I', 'T:I', 'OMEGA:I', 'PS:I', 'PMID:I', 'OMEGA500', 'PRECT', 'U200', 'U850',
         'FLUT', 'Q:I', 'ZMDT:I', 'ZMDQ:I', 'CMFMC_DP:I', 'DPDLFLIQ:I', 'DPDLFICE:I', 'PCLDTOP:I', 'CLDTOP:I', 'DTCORE:I',
         'PTEQ:I', 'DCQ:I', 'QTGW:I', 'CT_H2O:I', 'DCQ:I', 'MPDQ:I'
 fincl4		= 'PRECT','PRECC'
 fincl8		= 'PS', 'PSL', 'U', 'V', 'T', 'Z3', 'PHIS', 'FRONTGF:I', 'OMEGA', 'O3', 'REFF_AERO', 'SAD_AERO',
         'so4_a1', 'so4_a2', 'so4_a3', 'AODVISstdn', 'NITROP_PD', 'dgnumwet1', 'dgnumwet2', 'dgnumwet3', 'CO2', 'H', 'NO', 'O'
 interpolate_nlat		= 192,192,192,192,192,192,192,192
 interpolate_nlon		= 288,288,288,288,288,288,288,288
 interpolate_output		= .true.,.true.,.true.,.true.,.true.,.true.,.true.,.true.
 mfilt		= 1,5,20,40,120,240,365,73,365
 nhtfrq		= 0,-24,-6,-3,-1,1,-24,-120,-240
/
&cam_initfiles_nl
 bnd_topo		= '/glade/p/cesmdata/cseg/inputdata/atm/cam/topo/se/ne30pg3_nc3000_Co060_Fi001_PF_nullRR_Nsw042_20171014.nc'
 ncdata		= '/glade/p/cesm/chwg_dev/tilmes/inputdata/init/cam7/1979-01-01-00000/f.e21.FWHISTBgcCrop.f09_f09_mg17.CMIP6-AMIP-WACCM.001.cam.i.1979-01-01-00000.map_TO_ne30_57L.nc'
 scale_dry_air_mass		=   98288.0D0 
 use_topo_file		=  .true.  
/
&check_energy_nl
 print_energy_errors		= .false.
/
&chem_inparm
 chem_use_chemtrop		= .true.
 depvel_lnd_file		= '/glade/p/cesmdata/cseg/inputdata/atm/cam/chem/trop_mozart/dvel/regrid_vegetation.nc'
 drydep_srf_file		= '/glade/p/cesmdata/cseg/inputdata/atm/cam/chem/trop_mam/atmsrf_ne30pg3_180522.nc'
 ext_frc_specifier		= 'bc_a4 -> /glade/p/cesmdata/cseg/inputdata/atm/cam/chem/emis/CMIP6_emissions_1750_2015/emissions-cmip6_bc_a4_aircraft_vertical_1750-2015_0.9x1.25_c20170608.nc',
         'NO2 -> /glade/p/cesmdata/cseg/inputdata/atm/cam/chem/emis/CMIP6_emissions_1750_2015/emissions-cmip6_NO2_aircraft_vertical_1750-2015_0.9x1.25_c20170608.nc',
         'num_a1 -> /glade/p/cesmdata/cseg/inputdata/atm/cam/chem/emis/historical_ne30pg3/emissions-cmip6_num_so4_a1_anthro-ene_vertical_mol_175001-201412_ne30pg3_c20200103.nc',
         'num_a1 -> /glade/p/cesmdata/cseg/inputdata/atm/cam/chem/emis/historical_ne30pg3/emissions-cmip6_num_a1_so4_contvolcano_vertical_850-5000_ne30pg3_c20200125.nc',
         'num_a2 -> /glade/p/cesmdata/cseg/inputdata/atm/cam/chem/emis/historical_ne30pg3/emissions-cmip6_num_a2_so4_contvolcano_vertical_850-5000_ne30pg3_c20200125.nc',
         'num_a4 -> /glade/p/cesmdata/cseg/inputdata/atm/cam/chem/emis/CMIP6_emissions_1750_2015/emissions-cmip6_num_bc_a4_aircraft_vertical_1750-2015_0.9x1.25_c20170608.nc',
         'SO2 -> /glade/p/cesmdata/cseg/inputdata/atm/cam/chem/emis/CMIP6_emissions_1750_2015/emissions-cmip6_SO2_aircraft_vertical_1750-2015_0.9x1.25_c20170608.nc',
         'SO2 -> /glade/p/cesmdata/cseg/inputdata/atm/cam/chem/emis/historical_ne30pg3/emissions-cmip6_SO2_contvolcano_vertical_850-5000_ne30pg3_c20200125.nc',
         'SO2 -> /glade/p/cesmdata/cseg/inputdata/atm/cam/chem/stratvolc/VolcanEESMv3.11_SO2_850-2016_Mscale_Zreduc_1deg_c191121.nc',
         'so4_a1 -> /glade/p/cesmdata/cseg/inputdata/atm/cam/chem/emis/historical_ne30pg3/emissions-cmip6_so4_a1_anthro-ene_vertical_mol_175001-201412_ne30pg3_c20200103.nc',
         'so4_a1 -> /glade/p/cesmdata/cseg/inputdata/atm/cam/chem/emis/historical_ne30pg3/emissions-cmip6_so4_a1_contvolcano_vertical_850-5000_ne30pg3_c20200125.nc',
         'so4_a2 -> /glade/p/cesmdata/cseg/inputdata/atm/cam/chem/emis/historical_ne30pg3/emissions-cmip6_so4_a2_contvolcano_vertical_850-5000_ne30pg3_c20200125.nc'
 ext_frc_type		= 'INTERP_MISSING_MONTHS'
 lght_no_prd_factor		= 1.80D0
 photo_max_zen		= 97.01D0
 rsf_file		= '/glade/p/cesmdata/cseg/inputdata/atm/waccm/phot/RSF_GT200nm_v3.0_c080811.nc'
 srf_emis_specifier		= 'BENZENE -> /glade/p/cesmdata/cseg/inputdata/atm/cam/chem/emis/historical_ne30pg3/emissions-cmip6_BENZENE_anthro_surface_175001-201412_ne30pg3_c20191118.nc',
         'BENZENE -> /glade/p/cesmdata/cseg/inputdata/atm/cam/chem/emis/historical_ne30pg3/emissions-cmip6_BENZENE_bb_surface_175001-201512_ne30pg3_c20191118.nc',
         'BIGALK -> /glade/p/cesmdata/cseg/inputdata/atm/cam/chem/emis/historical_ne30pg3/emissions-cmip6_BIGALK_anthro_surface_175001-201412_ne30pg3_c20191118.nc',
         'BIGALK -> /glade/p/cesmdata/cseg/inputdata/atm/cam/chem/emis/historical_ne30pg3/emissions-cmip6_BIGALK_bb_surface_175001-201512_ne30pg3_c20191118.nc',
         'BIGENE -> /glade/p/cesmdata/cseg/inputdata/atm/cam/chem/emis/historical_ne30pg3/emissions-cmip6_BIGENE_anthro_surface_175001-201412_ne30pg3_c20191118.nc',
         'BIGENE -> /glade/p/cesmdata/cseg/inputdata/atm/cam/chem/emis/historical_ne30pg3/emissions-cmip6_BIGENE_bb_surface_175001-201512_ne30pg3_c20191118.nc',
         'C2H2 -> /glade/p/cesmdata/cseg/inputdata/atm/cam/chem/emis/historical_ne30pg3/emissions-cmip6_C2H2_anthro_surface_175001-201412_ne30pg3_c20191118.nc',
         'C2H2 -> /glade/p/cesmdata/cseg/inputdata/atm/cam/chem/emis/historical_ne30pg3/emissions-cmip6_C2H2_bb_surface_175001-201512_ne30pg3_c20191118.nc',
         'C2H4 -> /glade/p/cesmdata/cseg/inputdata/atm/cam/chem/emis/historical_ne30pg3/emissions-cmip6_C2H4_anthro_surface_175001-201412_ne30pg3_c20191118.nc',
         'C2H4 -> /glade/p/cesmdata/cseg/inputdata/atm/cam/chem/emis/historical_ne30pg3/emissions-cmip6_C2H4_bb_surface_175001-201512_ne30pg3_c20191118.nc',
         'C2H4 -> /glade/p/cesmdata/cseg/inputdata/atm/cam/chem/emis/historical_ne30pg3/emissions-cmip6_C2H4_other_surface_1750_2015_ne30pg3_c20200630.nc',
         'C2H5OH -> /glade/p/cesmdata/cseg/inputdata/atm/cam/chem/emis/historical_ne30pg3/emissions-cmip6_C2H5OH_anthro_surface_175001-201412_ne30pg3_c20191118.nc',
         'C2H5OH -> /glade/p/cesmdata/cseg/inputdata/atm/cam/chem/emis/historical_ne30pg3/emissions-cmip6_C2H5OH_bb_surface_175001-201512_ne30pg3_c20191118.nc',
         'C2H6 -> /glade/p/cesmdata/cseg/inputdata/atm/cam/chem/emis/historical_ne30pg3/emissions-cmip6_C2H6_anthro_surface_175001-201412_ne30pg3_c20191118.nc',
         'C2H6 -> /glade/p/cesmdata/cseg/inputdata/atm/cam/chem/emis/historical_ne30pg3/emissions-cmip6_C2H6_bb_surface_175001-201512_ne30pg3_c20191118.nc',
         'C2H6 -> /glade/p/cesmdata/cseg/inputdata/atm/cam/chem/emis/historical_ne30pg3/emissions-cmip6_C2H6_other_surface_1750_2015_ne30pg3_c20200630.nc',
         'C3H6 -> /glade/p/cesmdata/cseg/inputdata/atm/cam/chem/emis/historical_ne30pg3/emissions-cmip6_C3H6_anthro_surface_175001-201412_ne30pg3_c20191118.nc',
         'C3H6 -> /glade/p/cesmdata/cseg/inputdata/atm/cam/chem/emis/historical_ne30pg3/emissions-cmip6_C3H6_bb_surface_175001-201512_ne30pg3_c20191118.nc',
         'C3H6 -> /glade/p/cesmdata/cseg/inputdata/atm/cam/chem/emis/historical_ne30pg3/emissions-cmip6_C3H6_other_surface_1750_2015_ne30pg3_c20200630.nc',
         'C3H8 -> /glade/p/cesmdata/cseg/inputdata/atm/cam/chem/emis/historical_ne30pg3/emissions-cmip6_C3H8_anthro_surface_175001-201412_ne30pg3_c20191118.nc',
         'C3H8 -> /glade/p/cesmdata/cseg/inputdata/atm/cam/chem/emis/historical_ne30pg3/emissions-cmip6_C3H8_bb_surface_175001-201512_ne30pg3_c20191118.nc',
         'C3H8 -> /glade/p/cesmdata/cseg/inputdata/atm/cam/chem/emis/historical_ne30pg3/emissions-cmip6_C3H8_other_surface_1750_2015_ne30pg3_c20200630.nc',
         'CH2O -> /glade/p/cesmdata/cseg/inputdata/atm/cam/chem/emis/historical_ne30pg3/emissions-cmip6_CH2O_anthro_surface_175001-201412_ne30pg3_c20191118.nc',
         'CH2O -> /glade/p/cesmdata/cseg/inputdata/atm/cam/chem/emis/historical_ne30pg3/emissions-cmip6_CH2O_bb_surface_175001-201512_ne30pg3_c20191118.nc',
         'CH3CHO -> /glade/p/cesmdata/cseg/inputdata/atm/cam/chem/emis/historical_ne30pg3/emissions-cmip6_CH3CHO_anthro_surface_175001-201412_ne30pg3_c20191118.nc',
         'CH3CHO -> /glade/p/cesmdata/cseg/inputdata/atm/cam/chem/emis/historical_ne30pg3/emissions-cmip6_CH3CHO_bb_surface_175001-201512_ne30pg3_c20191118.nc',
         'CH3CN -> /glade/p/cesmdata/cseg/inputdata/atm/cam/chem/emis/historical_ne30pg3/emissions-cmip6_CH3CN_anthro_surface_175001-201412_ne30pg3_c20191119.nc',
         'CH3CN -> /glade/p/cesmdata/cseg/inputdata/atm/cam/chem/emis/historical_ne30pg3/emissions-cmip6_CH3CN_bb_surface_175001-201512_ne30pg3_c20191119.nc',
         'CH3COCH3 -> /glade/p/cesmdata/cseg/inputdata/atm/cam/chem/emis/historical_ne30pg3/emissions-cmip6_CH3COCH3_anthro_surface_175001-201412_ne30pg3_c20191118.nc',
         'CH3COCH3 -> /glade/p/cesmdata/cseg/inputdata/atm/cam/chem/emis/historical_ne30pg3/emissions-cmip6_CH3COCH3_bb_surface_175001-201512_ne30pg3_c20191118.nc',
         'CH3COCHO -> /glade/p/cesmdata/cseg/inputdata/atm/cam/chem/emis/historical_ne30pg3/emissions-cmip6_CH3COCHO_bb_surface_175001-201512_ne30pg3_c20191118.nc',
         'CH3COOH -> /glade/p/cesmdata/cseg/inputdata/atm/cam/chem/emis/historical_ne30pg3/emissions-cmip6_CH3COOH_anthro_surface_175001-201412_ne30pg3_c20191118.nc',
         'CH3COOH -> /glade/p/cesmdata/cseg/inputdata/atm/cam/chem/emis/historical_ne30pg3/emissions-cmip6_CH3COOH_bb_surface_175001-201512_ne30pg3_c20191118.nc',
         'CH3OH -> /glade/p/cesmdata/cseg/inputdata/atm/cam/chem/emis/historical_ne30pg3/emissions-cmip6_CH3OH_anthro_surface_175001-201412_ne30pg3_c20191118.nc',
         'CH3OH -> /glade/p/cesmdata/cseg/inputdata/atm/cam/chem/emis/historical_ne30pg3/emissions-cmip6_CH3OH_bb_surface_175001-201512_ne30pg3_c20191118.nc',
         'CO -> /glade/p/cesmdata/cseg/inputdata/atm/cam/chem/emis/historical_ne30pg3/emissions-cmip6_CO_anthro_surface_175001-201412_ne30pg3_c20191118.nc',
         'CO -> /glade/p/cesmdata/cseg/inputdata/atm/cam/chem/emis/historical_ne30pg3/emissions-cmip6_CO_bb_surface_175001-201512_ne30pg3_c20191118.nc',
         'CO -> /glade/p/cesmdata/cseg/inputdata/atm/cam/chem/emis/historical_ne30pg3/emissions-cmip6_CO_other_surface_1750_2015_ne30pg3_c20200630.nc',
         'E90 -> /glade/p/cesmdata/cseg/inputdata/atm/cam/chem/emis/historical_ne30pg3/emissions_E90global_surface_1750_2015_ne30pg3_c20200630.nc',
         'GLYALD -> /glade/p/cesmdata/cseg/inputdata/atm/cam/chem/emis/historical_ne30pg3/emissions-cmip6_GLYALD_bb_surface_175001-201512_ne30pg3_c20191118.nc',
         'HCN -> /glade/p/cesmdata/cseg/inputdata/atm/cam/chem/emis/historical_ne30pg3/emissions-cmip6_HCN_anthro_surface_175001-201412_ne30pg3_c20191119.nc',
         'HCN -> /glade/p/cesmdata/cseg/inputdata/atm/cam/chem/emis/historical_ne30pg3/emissions-cmip6_HCN_bb_surface_175001-201512_ne30pg3_c20191119.nc',
         'HCOOH -> /glade/p/cesmdata/cseg/inputdata/atm/cam/chem/emis/historical_ne30pg3/emissions-cmip6_HCOOH_anthro_surface_175001-201412_ne30pg3_c20191118.nc',
         'HCOOH -> /glade/p/cesmdata/cseg/inputdata/atm/cam/chem/emis/historical_ne30pg3/emissions-cmip6_HCOOH_bb_surface_175001-201512_ne30pg3_c20191118.nc',
         'ISOP -> /glade/p/cesmdata/cseg/inputdata/atm/cam/chem/emis/historical_ne30pg3/emissions-cmip6_ISOP_bb_surface_175001-201512_ne30pg3_c20191118.nc',
         'IVOC -> /glade/p/cesmdata/cseg/inputdata/atm/cam/chem/emis/historical_ne30pg3/emissions-cmip6_IVOC_anthro_surface_175001-201412_ne30pg3_c20200103.nc',
         'IVOC -> /glade/p/cesmdata/cseg/inputdata/atm/cam/chem/emis/historical_ne30pg3/emissions-cmip6_IVOC_bb_surface_175001-201512_ne30pg3_c20191119.nc',
         'MEK -> /glade/p/cesmdata/cseg/inputdata/atm/cam/chem/emis/historical_ne30pg3/emissions-cmip6_MEK_anthro_surface_175001-201412_ne30pg3_c20191118.nc',
         'MEK -> /glade/p/cesmdata/cseg/inputdata/atm/cam/chem/emis/historical_ne30pg3/emissions-cmip6_MEK_bb_surface_175001-201512_ne30pg3_c20191118.nc',
         'MTERP -> /glade/p/cesmdata/cseg/inputdata/atm/cam/chem/emis/historical_ne30pg3/emissions-cmip6_MTERP_bb_surface_175001-201512_ne30pg3_c20191118.nc',
         'NH3 -> /glade/p/cesmdata/cseg/inputdata/atm/cam/chem/emis/historical_ne30pg3/emissions-cmip6_NH3_anthro_surface_175001-201412_ne30pg3_c20191118.nc',
         'NH3 -> /glade/p/cesmdata/cseg/inputdata/atm/cam/chem/emis/historical_ne30pg3/emissions-cmip6_NH3_bb_surface_175001-201512_ne30pg3_c20191118.nc',
         'NH3 -> /glade/p/cesmdata/cseg/inputdata/atm/cam/chem/emis/historical_ne30pg3/emissions-cmip6_NH3_other_surface_1750_2015_ne30pg3_c20200531.nc',
         'NO -> /glade/p/cesmdata/cseg/inputdata/atm/cam/chem/emis/historical_ne30pg3/emissions-cmip6_NOx_anthro_surface_175001-201412_ne30pg3_c20191118.nc',
         'NO -> /glade/p/cesmdata/cseg/inputdata/atm/cam/chem/emis/historical_ne30pg3/emissions-cmip6_NOx_bb_surface_175001-201512_ne30pg3_c20191118.nc',
         'NO -> /glade/p/cesmdata/cseg/inputdata/atm/cam/chem/emis/historical_ne30pg3/emissions-cmip6_NO_other_surface_1750_2015_ne30pg3_c20200523.nc',
         'SVOC -> /glade/p/cesmdata/cseg/inputdata/atm/cam/chem/emis/historical_ne30pg3/emissions-cmip6_SVOC_anthro_surface_175001-201412_ne30pg3_c20200103.nc',
         'SVOC -> /glade/p/cesmdata/cseg/inputdata/atm/cam/chem/emis/historical_ne30pg3/emissions-cmip6_SVOC_bb_surface_175001-201512_ne30pg3_c20191119.nc',
         'TOLUENE -> /glade/p/cesmdata/cseg/inputdata/atm/cam/chem/emis/historical_ne30pg3/emissions-cmip6_TOLUENE_anthro_surface_175001-201412_ne30pg3_c20191118.nc',
         'TOLUENE -> /glade/p/cesmdata/cseg/inputdata/atm/cam/chem/emis/historical_ne30pg3/emissions-cmip6_TOLUENE_bb_surface_175001-201512_ne30pg3_c20191118.nc',
         'XYLENES -> /glade/p/cesmdata/cseg/inputdata/atm/cam/chem/emis/historical_ne30pg3/emissions-cmip6_XYLENES_anthro_surface_175001-201412_ne30pg3_c20191118.nc',
         'XYLENES -> /glade/p/cesmdata/cseg/inputdata/atm/cam/chem/emis/historical_ne30pg3/emissions-cmip6_XYLENES_bb_surface_175001-201512_ne30pg3_c20191118.nc',
         'bc_a4 -> /glade/p/cesmdata/cseg/inputdata/atm/cam/chem/emis/historical_ne30pg3/emissions-cmip6_bc_a4_anthro_surface_175001-201412_ne30pg3_c20191118.nc',
         'bc_a4 -> /glade/p/cesmdata/cseg/inputdata/atm/cam/chem/emis/historical_ne30pg3/emissions-cmip6_bc_a4_bb_surface_175001-201512_ne30pg3_c20191118.nc',
         'DMS -> /glade/p/cesmdata/cseg/inputdata/atm/cam/chem/emis/historical_ne30pg3/emissions-cmip6_DMS_bb_surface_175001-201512_ne30pg3_c20191118.nc',
         'DMS -> /glade/p/cesmdata/cseg/inputdata/atm/cam/chem/emis/historical_ne30pg3/emissions-cmip6_DMS_other_surface_1750_2015_ne30pg3_c20200630.nc',
         'num_a1 -> /glade/p/cesmdata/cseg/inputdata/atm/cam/chem/emis/historical_ne30pg3/emissions-cmip6_num_so4_a1_bb_surface_175001-201512_ne30pg3_c20191118.nc',
         'num_a1 -> /glade/p/cesmdata/cseg/inputdata/atm/cam/chem/emis/historical_ne30pg3/emissions-cmip6_num_so4_a1_anthro-ag-ship_surface_mol_175001-201412_ne30pg3_c20200103.nc',
         'num_a2 -> /glade/p/cesmdata/cseg/inputdata/atm/cam/chem/emis/historical_ne30pg3/emissions-cmip6_num_so4_a2_anthro-res_surface_mol_175001-201412_ne30pg3_c20200103.nc',
         'num_a4 -> /glade/p/cesmdata/cseg/inputdata/atm/cam/chem/emis/historical_ne30pg3/emissions-cmip6_num_bc_a4_bb_surface_175001-201512_ne30pg3_c20191118.nc',
         'num_a4 -> /glade/p/cesmdata/cseg/inputdata/atm/cam/chem/emis/historical_ne30pg3/emissions-cmip6_num_bc_a4_anthro_surface_175001-201412_ne30pg3_c20191118.nc',
         'num_a4 -> /glade/p/cesmdata/cseg/inputdata/atm/cam/chem/emis/historical_ne30pg3/emissions-cmip6_num_pom_a4_anthro_surface_175001-201412_ne30pg3_c20191118.nc',
         'num_a4 -> /glade/p/cesmdata/cseg/inputdata/atm/cam/chem/emis/historical_ne30pg3/emissions-cmip6_num_pom_a4_bb_surface_175001-201512_ne30pg3_c20191118.nc',
         'pom_a4 -> /glade/p/cesmdata/cseg/inputdata/atm/cam/chem/emis/historical_ne30pg3/emissions-cmip6_pom_a4_anthro_surface_175001-201412_ne30pg3_c20191118.nc',
         'pom_a4 -> /glade/p/cesmdata/cseg/inputdata/atm/cam/chem/emis/historical_ne30pg3/emissions-cmip6_pom_a4_bb_surface_175001-201512_ne30pg3_c20191118.nc',
         'SO2 -> /glade/p/cesmdata/cseg/inputdata/atm/cam/chem/emis/historical_ne30pg3/emissions-cmip6_SO2_anthro-ag-ship-res_surface_mol_175001-201412_ne30pg3_c20200103.nc',
         'SO2 -> /glade/p/cesmdata/cseg/inputdata/atm/cam/chem/emis/historical_ne30pg3/emissions-cmip6_SO2_anthro-ene_surface_mol_175001-201412_ne30pg3_c20200103.nc',
         'SO2 -> /glade/p/cesmdata/cseg/inputdata/atm/cam/chem/emis/historical_ne30pg3/emissions-cmip6_SO2_bb_surface_175001-201512_ne30pg3_c20191118.nc',
         'so4_a1 -> /glade/p/cesmdata/cseg/inputdata/atm/cam/chem/emis/historical_ne30pg3/emissions-cmip6_so4_a1_anthro-ag-ship_surface_mol_175001-201412_ne30pg3_c20200103.nc',
         'so4_a1 -> /glade/p/cesmdata/cseg/inputdata/atm/cam/chem/emis/historical_ne30pg3/emissions-cmip6_so4_a1_bb_surface_175001-201512_ne30pg3_c20191118.nc',
         'so4_a2 -> /glade/p/cesmdata/cseg/inputdata/atm/cam/chem/emis/historical_ne30pg3/emissions-cmip6_so4_a2_anthro-res_surface_mol_175001-201412_ne30pg3_c20200103.nc'
 srf_emis_type		= 'INTERP_MISSING_MONTHS'
 tracer_cnst_datapath		= '/glade/p/cesmdata/cseg/inputdata/atm/cam/tracer_cnst'
 tracer_cnst_file		= ''
 tracer_cnst_filelist		= ''
 tracer_cnst_specifier		= ''
 tracer_cnst_type		= 'INTERP_MISSING_MONTHS'
 xs_coef_file		= '/glade/p/cesmdata/cseg/inputdata/atm/waccm/phot/effxstex.txt'
 xs_long_file		= '/glade/p/cesmdata/cseg/inputdata/atm/waccm/phot/temp_prs_GT200nm_JPL10_c140624.nc'
 xs_short_file		= '/glade/p/cesmdata/cseg/inputdata/atm/waccm/phot/xs_short_jpl10_c140303.nc'
/
&chem_surfvals_nl
 flbc_file		= '/glade/p/cesmdata/cseg/inputdata/atm/waccm/lb/LBC_17500116-20150116_CMIP6_0p5degLat_c180227.nc'
 flbc_list		= 'CCL4', 'CF2CLBR', 'CF3BR', 'CFC11', 'CFC113', 'CFC12', 'CH3BR', 'CH3CCL3', 'CH3CL', 'CH4', 'CO2', 'H2',
         'HCFC22', 'N2O', 'CFC114', 'CFC115', 'HCFC141B', 'HCFC142B', 'H2402', 'OCS', 'SF6', 'CFC11eq'
 flbc_type		= 'SERIAL'
 scenario_ghg		= 'CHEM_LBC_FILE'
/
&circ_diag_nl
 do_circulation_diags		= .true.
/
&cldfrc2m_nl
 cldfrc2m_do_subgrid_growth		= .true.
 cldfrc2m_rhmaxi		=   1.0D0  
 cldfrc2m_rhmaxis		=   1.0D0  
 cldfrc2m_rhmini		=   0.80D0  
 cldfrc2m_rhminis		=   1.0D0 
/
&cldfrc_nl
 cldfrc_dp1		=  0.10D0 
 cldfrc_dp2		=  500.0D0 
 cldfrc_freeze_dry		= .true.
 cldfrc_ice		= .true.
 cldfrc_icecrit		=  0.93D0 
 cldfrc_iceopt		=  5 
 cldfrc_premib		=  700.0D2 
 cldfrc_premit		=  75000.0D0 
 cldfrc_rhminh		=  0.800D0 
 cldfrc_rhminl		=  0.950D0 
 cldfrc_rhminl_adj_land		=  0.000D0 
 cldfrc_sh1		=  0.04D0 
 cldfrc_sh2		=  500.0D0 
/
&clubb_his_nl
 clubb_history		=  .false. 
 clubb_rad_history		=  .false. 
/
&clubb_mf_nl
 clubb_mf_ent0		=  0.22    
 clubb_mf_l0		=  50.0    
 clubb_mf_nup		=  10      
 do_clubb_mf		=  .false. 
 do_clubb_mf_diag		=  .false. 
/
&clubb_params_nl
 clubb_beta		=  2.4     
 clubb_c1		=  1.0     
 clubb_c11		=  0.7D0   
 clubb_c11b		=  0.35D0  
 clubb_c14		=  1.6D0   
 clubb_c1b		=  1.0     
 clubb_c2rt		=  1.0     
 clubb_c2rtthl		=  1.3     
 clubb_c2thl		=  1.0     
 clubb_c4		=  5.2     
 clubb_c6rt		=  4.0     
 clubb_c6rtb		=  6.0     
 clubb_c6rtc		=  1.0     
 clubb_c6thl		=  4.0     
 clubb_c6thlb		=  6.0     
 clubb_c6thlc		=  1.0     
 clubb_c7		=  0.5     
 clubb_c7b		=  0.5     
 clubb_c8		=  4.2     
 clubb_c8b		=  0.0     
 clubb_c_k10		=  0.5     
 clubb_c_k10h		=  0.3     
 clubb_c_k9		=  0.25    
 clubb_c_wp2_splat		=  0.0     
 clubb_detice_rad		=  25.0D-6 
 clubb_detliq_rad		=  8.0D-6  
 clubb_detphase_lowtemp		=  238.15D0 
 clubb_do_liqsupersat		=  .false. 
 clubb_gamma_coef		=  0.270   
 clubb_gamma_coefb		=  0.32    
 clubb_l_brunt_vaisala_freq_moist		=  .false. 
 clubb_l_call_pdf_closure_twice		=  .true.  
 clubb_l_damp_wp2_using_em		=  .false. 
 clubb_l_damp_wp3_skw_squared		=  .false. 
 clubb_l_diag_lscale_from_tau		=  .false. 
 clubb_l_lscale_plume_centered		=  .false. 
 clubb_l_min_wp2_from_corr_wx		=  .false. 
 clubb_l_min_xp2_from_corr_wx		=  .false. 
 clubb_l_predict_upwp_vpwp		=  .false. 
 clubb_l_rcm_supersat_adj		=  .false. 
 clubb_l_stability_correct_tau_zm		=  .true.  
 clubb_l_trapezoidal_rule_zm		=  .false. 
 clubb_l_trapezoidal_rule_zt		=  .false. 
 clubb_l_upwind_xpyp_ta		=  .true.  
 clubb_l_use_c11_richardson		=  .false. 
 clubb_l_use_c7_richardson		=  .false. 
 clubb_l_use_cloud_cover		=  .true.  
 clubb_l_use_ice_latent		=  .false. 
 clubb_l_use_thvm_in_bv_freq		=  .false. 
 clubb_l_vert_avg_closure		=  .true.  
 clubb_lambda0_stability_coef		=  0.04    
 clubb_lmin_coef		=  0.1     
 clubb_mult_coef		=  1.0D0   
 clubb_nu9		=  20.0    
 clubb_skw_denom_coef		=  0.0     
 clubb_skw_max_mag		=  4.5     
 clubb_up2_vp2_factor		=  2.0     
 clubb_wpxp_l_thresh		=  60.0    
/
&clubbpbl_diff_nl
 clubb_cloudtop_cooling		=  .false. 
 clubb_do_icesuper		=  .false. 
 clubb_expldiff		=  .true.  
 clubb_rainevap_turb		=  .false. 
 clubb_rnevap_effic		=  1.0D0   
 clubb_timestep		=  300.0D0 
/
&conv_water_nl
 conv_water_frac_limit		=  0.01d0  
 conv_water_in_rad		=  1 
/
&dust_nl
 dust_emis_fact		= 0.8D0
 soil_erod_file		= '/glade/p/cesmdata/cseg/inputdata/atm/cam/dst/dst_source2x2tunedcam6-2x2-04062017.nc'
/
&dyn_se_inparm
 se_ftype		=  2 
 se_fv_nphys		= 3
 se_fvm_supercycling		= -1
 se_fvm_supercycling_jet		= -1
 se_horz_num_threads		=  0 
 se_hypervis_dynamic_ref_state		=  .false.  
 se_hypervis_subcycle		= 4
 se_hypervis_subcycle_q		= 1                 
 se_hypervis_subcycle_sponge		=  1  
 se_kmax_jet		= -1
 se_kmin_jet		= -1
 se_large_courant_incr		=  .true.  
 se_lcp_moist		=  .true.  
 se_limiter_option		=  8 
 se_molecular_diff		=   0.0 
 se_ne		= 30
 se_nsplit		= 2
 se_nu		= -1
 se_nu_div		=  -1 
 se_nu_p		= -1 
 se_nu_top		=  1.25e5 
 se_phys_dyn_cp		= 1
 se_qsplit		=  1 
 se_refined_mesh		=  .false. 
 se_rsplit		= 3
 se_sponge_del4_lev		=  -1 
 se_sponge_del4_nu_div_fac		=  -1 
 se_sponge_del4_nu_fac		=  -1 
 se_statediag_numtrac		= 3
 se_statefreq		=  0 
 se_tracer_num_threads		=  0 
 se_tstep_type		=  4 
 se_vert_num_threads		=  0 
 se_vert_remap_t		= 'thermal_energy_over_P'
 se_vert_remap_tracer_alg		= 'PPM_bc_linear_extrapolation'
 se_vert_remap_uvtq_alg		= 'FV3_CS'
/
&gw_drag_nl
 effgw_beres_dp		= 0.7D0
 effgw_cm		= 1.D0
 effgw_rdg_beta		= 1.0D0
 effgw_rdg_beta_max		= 1.0D0
 fcrit2		= 1.0
 frontgfc		= 3.00D-15
 gw_apply_tndmax		= .false.
 gw_dc		= 2.5D0
 gw_dc_long		= 0.D0
 gw_drag_file		= '/glade/p/cesmdata/cseg/inputdata/atm/waccm/gw/newmfspectra40_dc25.nc'
 gw_limit_tau_without_eff		= .true. 
 gw_lndscl_sgh		= .false.
 gw_oro_south_fac		= 2.d0   
 gw_polar_taper		= .false.
 gw_prndl		= 0.5D0
 n_rdg_beta		= 10
 pgwv		= 32
 pgwv_long		= 0
 rdg_beta_cd_llb		= 1.0D0
 tau_0_ubc		= .false.
 taubgnd		= 1.25D-3
 trpd_leewv_rdg_beta		= .false.
 use_gw_rdg_beta		= .true.
 use_gw_rdg_gamma		= .false.
/
&gw_rdg_nl
 gw_rdg_c_betamax_ds		=  0.0d0  
 gw_rdg_c_betamax_sm		=  2.0d0  
 gw_rdg_c_gammamax		=  2.0d0  
 gw_rdg_do_adjust_tauoro		= .true.  
 gw_rdg_do_backward_compat		= .false.
 gw_rdg_do_divstream		= .true.
 gw_rdg_do_smooth_regimes		= .false. 
 gw_rdg_fr_c		= 1.0D0
 gw_rdg_frx0		=  2.0d0  
 gw_rdg_frx1		=  3.0d0  
 gw_rdg_orohmin		=  0.01d0 
 gw_rdg_orom2min		=  0.1d0  
 gw_rdg_orostratmin		=  0.002d0
 gw_rdg_orovmin		=  1.0d-3 
/
&micro_mg_nl
 micro_do_massless_droplet_destroyer		=   .false. 
 micro_do_sb_physics		= .false.
 micro_mg_accre_enhan_fact		=   1.D0    
 micro_mg_adjust_cpt		= .false.
 micro_mg_autocon_fact		=   0.01D0    
 micro_mg_autocon_lwp_exp		=   2.47D0    
 micro_mg_autocon_nd_exp		=   -1.1D0    
 micro_mg_berg_eff_factor		=   1.D0    
 micro_mg_dcs		=                                  500.D-6    
 micro_mg_do_graupel		= .true.
 micro_mg_do_hail		=  .false. 
 micro_mg_effi_factor		=   1.D0    
 micro_mg_homog_size		=   25.D-6    
 micro_mg_iaccr_factor		=   1.D0    
 micro_mg_max_nicons		=  1.D8    
 micro_mg_num_steps		=                                  1          
 micro_mg_precip_frac_method		= 'in_cloud'
 micro_mg_sub_version		=                                  0          
 micro_mg_version		= 3
 micro_mg_vtrmi_factor		=   1.D0    
/
&microp_aero_nl
 microp_aero_bulk_scale		=   2.D0    
 microp_aero_npccn_scale		=   1.D0    
 microp_aero_wsub_min		=   0.2D0    
 microp_aero_wsub_scale		=   1.D0    
 microp_aero_wsubi_min		=   0.001D0    
 microp_aero_wsubi_scale		=   1.D0    
/
&modal_aer_opt_nl
 water_refindex_file		= '/glade/p/cesmdata/cseg/inputdata/atm/cam/physprops/water_refindex_rrtmg_c080910.nc'
/
&nucleate_ice_nl
 nucleate_ice_incloud		= .false.
 nucleate_ice_strat		= 1.0D0
 nucleate_ice_subgrid		= 1.2D0
 nucleate_ice_subgrid_strat		= 1.2D0
 nucleate_ice_use_troplev		= .true.
 use_preexisting_ice		= .true.
/
&phys_ctl_nl
 cam_chempkg		= 'trop_strat_mam4_vbs'
 cam_physpkg		= 'cam_dev'
 cam_snapshot_after_num		=    -1 
 cam_snapshot_before_num		=   -1 
 cld_macmic_num_steps		=  3 
 convproc_do_aer		= .true.
 deep_scheme		= 'ZM'
 do_clubb_sgs		=  .true.  
 eddy_scheme		= 'CLUBB_SGS'
 history_aero_optics		=           .false.  
 history_aerosol		=               .false.  
 history_amwg		=                  .true.   
 history_budget		=                .false.  
 history_chemistry		= .true.
 history_chemspecies_srf		=       .true.   
 history_clubb		=                 .true.   
 history_dust		=                  .false.  
 history_eddy		=                  .false.  
 history_vdiag		=                 .false.  
 history_waccm		=                 .false.  
 history_waccmx		=                .false.  
 macrop_scheme		= 'CLUBB_SGS'
 microp_scheme		= 'MG'
 radiation_scheme		= 'rrtmg'
 shallow_scheme		= 'CLUBB_SGS'
 srf_flux_avg		= 0
 use_gw_convect_dp		= .true.
 use_gw_convect_sh		= .false.
 use_gw_front		= .true.
 use_gw_front_igw		= .false.
 use_gw_oro		= .false.
 use_hetfrz_classnuc		= .true.
 use_simple_phys		= .false.
 use_subcol_microp		= .false.
 waccmx_opt		= 'off'
/
&prescribed_ozone_nl
 prescribed_ozone_datapath		= '/glade/p/cesmdata/cseg/inputdata/atm/cam/ozone_strataero'
 prescribed_ozone_file		= ''
 prescribed_ozone_name		= 'O3'
 prescribed_ozone_type		= 'SERIAL'
/
&prescribed_strataero_nl
 prescribed_strataero_datapath		= '/glade/p/cesmdata/cseg/inputdata/atm/cam/ozone_strataero'
 prescribed_strataero_file		= ''
 prescribed_strataero_type		= 'SERIAL'
 prescribed_strataero_use_chemtrop		=    .true.                                                                       
/
&qneg_nl
 print_qneg_warn		= 'summary'
/
&rad_cnst_nl
 icecldoptics		= 'mitchell'
 iceopticsfile		= '/glade/p/cesmdata/cseg/inputdata/atm/cam/physprops/iceoptics_c080917.nc'
 liqcldoptics		= 'gammadist'
 liqopticsfile		= '/glade/p/cesmdata/cseg/inputdata/atm/cam/physprops/F_nwvl200_mu20_lam50_res64_t298_c080428.nc'
 mode_defs		= 'mam4_mode1:accum:=', 'A:num_a1:N:num_c1:num_mr:+',
         'A:so4_a1:N:so4_c1:sulfate:/glade/p/cesmdata/cseg/inputdata/atm/cam/physprops/sulfate_rrtmg_c080918.nc:+', 'A:pom_a1:N:pom_c1:p-organic:/glade/p/cesmdata/cseg/inputdata/atm/cam/physprops/ocpho_rrtmg_c130709.nc:+',
         'A:soa1_a1:N:soa1_c1:s-organic:/glade/p/cesmdata/cseg/inputdata/atm/cam/physprops/ocphi_rrtmg_c100508.nc:+', 'A:soa2_a1:N:soa2_c1:s-organic:/glade/p/cesmdata/cseg/inputdata/atm/cam/physprops/ocphi_rrtmg_c100508.nc:+',
         'A:soa3_a1:N:soa3_c1:s-organic:/glade/p/cesmdata/cseg/inputdata/atm/cam/physprops/ocphi_rrtmg_c100508.nc:+', 'A:soa4_a1:N:soa4_c1:s-organic:/glade/p/cesmdata/cseg/inputdata/atm/cam/physprops/ocphi_rrtmg_c100508.nc:+',
         'A:soa5_a1:N:soa5_c1:s-organic:/glade/p/cesmdata/cseg/inputdata/atm/cam/physprops/ocphi_rrtmg_c100508.nc:+', 'A:bc_a1:N:bc_c1:black-c:/glade/p/cesmdata/cseg/inputdata/atm/cam/physprops/bcpho_rrtmg_c100508.nc:+',