/* WARNING: DO NOT EDIT this file. Any changes you make will be
        overriden. To make changes in MOM6 parameters within CESM
        framework, use SourceMods or user_nl_mom mechanisms.

        This input file provides the adjustable run-time parameters
        for version 6 of the Modular Ocean Model (MOM6). By default,
        this file contains the out-of-the-box CESM configuration. A
        full list of parameters for this case can be found in the
        corresponding MOM_parameter_doc.all file which is generated
        by the model at runtime. */

INPUTDIR = /glade/campaign/cesm/cesmdata/inputdata/ocn/mom/tx2_3v2
                                ! "The directory in which input files are found."

TRIPOLAR_N = True
                                ! "[Boolean] default = False
                                ! Use tripolar connectivity at the northern edge of the
                                ! domain.  With TRIPOLAR_N, NIGLOBAL must be even."

NIHALO = 4
                                ! "default = 2
                                ! The number of halo points on each side in the
                                ! x-direction.  With STATIC_MEMORY_ this is set as NIHALO_
                                ! in MOM_memory.h at compile time; without STATIC_MEMORY_
                                ! the default is NIHALO_ in MOM_memory.h (if defined) or 2."

NJHALO = 4
                                ! "default = 2
                                ! The number of halo points on each side in the
                                ! y-direction.  With STATIC_MEMORY_ this is set as NJHALO_
                                ! in MOM_memory.h at compile time; without STATIC_MEMORY_
                                ! the default is NJHALO_ in MOM_memory.h (if defined) or 2."

NIGLOBAL = 540
                                ! "The total number of thickness grid points in the
                                ! x-direction in the physical domain. With STATIC_MEMORY_
                                ! this is set in MOM_memory.h at compile time."

NJGLOBAL = 480
                                ! "The total number of thickness grid points in the
                                ! y-direction in the physical domain. With STATIC_MEMORY_
                                ! this is set in MOM_memory.h at compile time.
                                ! The number of processors in the x-direction. With
                                ! STATIC_MEMORY_ this is set in MOM_memory.h at compile time.
                                ! The number of processors in the x-direction. With
                                ! STATIC_MEMORY_ this is set in MOM_memory.h at compile time.
                                ! The processor layout that was acutally used."

NK = 75
                                ! "[nondim]
                                ! The number of model layers."

USE_LEGACY_DIABATIC_DRIVER = False
                                ! "[Boolean] default = True
                                ! If true, use the a legacy version of the diabatic subroutine.
                                ! This is temporary and is needed avoid change in answers."

DIABATIC_FIRST = True
                                ! "[Boolean] default = False
                                ! If true, apply diabatic and thermodynamic processes,
                                ! including buoyancy forcing and mass gain or loss,
                                ! before stepping the dynamics forward."

USE_REGRIDDING = True
                                ! "[Boolean] default = False
                                ! If True, use the ALE algorithm (regridding/remapping).
                                ! If False, use the layered isopycnal algorithm."

THICKNESSDIFFUSE = True
                                ! "[Boolean] default = False
                                ! If true, interfaces or isopycnal surfaces are diffused,
                                ! depending on the value of FULL_THICKNESSDIFFUSE."

THICKNESSDIFFUSE_FIRST = True
                                ! "[Boolean] default = False
                                ! If true, do thickness diffusion before dynamics.
                                ! This is only used if THICKNESSDIFFUSE is true."

DT = 1800
                                ! "[s]
                                ! The (baroclinic) dynamics time step.  The time-step that
                                ! is actually used will be an integer fraction of the
                                ! forcing time-step (DT_FORCING in ocean-only mode or the
                                ! coupling timestep in coupled mode.)"

DT_THERM = 3600.0
                                ! "[s] default = 3600.0
                                ! The thermodynamic and tracer advection time step.
                                ! Ideally DT_THERM should be an integer multiple of DT
                                ! and less than the forcing or coupling time-step.
                                ! By default DT_THERM is set to DT.
                                ! The minimum amount of time in seconds between
                                ! calculations of depth-space diagnostics. Making this
                                ! larger than DT_THERM reduces the  performance penalty
                                ! of regridding to depth online."

HFREEZE = 10.0
                                ! "[m] default = -1.0
                                ! If HFREEZE > 0, melt potential will be computed. The actual depth
                                ! over which melt potential is computed will be min(HFREEZE, OBLD),
                                ! where OBLD is the boundary layer depth. If HFREEZE <= 0 (default),
                                ! melt potential will not be computed."

DTBT_RESET_PERIOD = 7200.0
                                ! "[s] default = 7200.0
                                ! The period between recalculations of DTBT (if DTBT <= 0).
                                ! If DTBT_RESET_PERIOD is negative, DTBT is set based
                                ! only on information available at initialization.  If 0,
                                ! DTBT will be set every dynamics time step. The default
                                ! is set by DT_THERM.  This is only used if SPLIT is true."

FRAZIL = True
                                ! "[Boolean] default = False
                                ! If true, water freezes if it gets too cold, and the
                                ! the accumulated heat deficit is returned in the
                                ! surface state.  FRAZIL is only used if
                                ! ENABLE_THERMODYNAMICS is true.
                                ! If true, apply geothermal heating."

MIN_SALINITY = 0.0
                                ! "[PPT] default = 0.01
                                !  The minimum value of salinity when BOUND_SALINITY=True. The default is 0.01
                                !  for backward compatibility but ideally should be 0."

BOUND_SALINITY = True
                                ! "[Boolean] default = False
                                ! If true, limit salinity to being positive. (The sea-ice
                                ! model may ask for more salt than is available and
                                ! drive the salinity negative otherwise.)"

C_P = 3992.0
                                ! "[J kg-1 K-1] default = 3991.86795711963
                                ! The heat capacity of sea water, approximated as a
                                ! constant. This is only used if ENABLE_THERMODYNAMICS is
                                ! true. The default value is from the TEOS-10 definition
                                ! of conservative temperature."

USE_PSURF_IN_EOS = True
                                ! "[Boolean] default = True
                                ! If true, always include the surface pressure contributions in equation of
                                ! state calculations."

CHECK_BAD_SURFACE_VALS = True
                                ! "[Boolean] default = False
                                ! If true, check the surface state for ridiculous values."

SAVE_INITIAL_CONDS = True
                                ! "[Boolean] default = False
                                ! If true, write the initial conditions to a file given
                                ! by IC_OUTPUT_FILE."

GRID_ROTATION_ANGLE_BUGS = False
                                ! "[Boolean] default = True
                                ! If true, use an older algorithm to calculate the sine and
                                ! cosines needed rotate between grid-oriented directions and
                                ! true north and east.  Differences arise at the tripolar fold."

DTFREEZE_DP = -7.75e-08
                                ! "[deg C Pa-1] default = 0.0
                                ! When TFREEZE_FORM=LINEAR,
                                ! this is the derivative of the freezing potential
                                ! temperature with pressure."

USE_IDEAL_AGE_TRACER = True
                                ! "[Boolean] default = False
                                ! If true, use the ideal_age_example tracer package."

USE_CFC_CAP = False
                                ! "[Boolean] default = False
                                ! If true, use the MOM_CFC_cap tracer package."

CFC_BC_FILE = /glade/campaign/cesm/cesmdata/inputdata/ocn/mom/grid_indpt/cfc_atm_20230310.nc
                                ! "The file in which the CFC-11 and CFC-12 atm concentrations can be found (units
                                ! must be parts per trillion)."

REMAP_UV_USING_OLD_ALG = False
                                ! "[Boolean] default = True
                                ! If true, uses the old remapping-via-a-delta-z method for remapping u and v. If
                                ! false, uses the new method that remaps between grids described by an old and
                                ! new thickness."

BOUNDARY_EXTRAPOLATION = True
                                ! "[Boolean] default = False
                                ! When defined, a proper high-order reconstruction
                                ! scheme is used within boundary cells rather
                                ! than PCM. E.g., if PPM is used for remapping, a
                                ! PPM reconstruction will also be used within
                                ! boundary cells."

GRID_CONFIG = mosaic
                                ! "A character string that determines the method for
                                ! defining the horizontal grid.  Current options are:
                                ! mosaic - read the grid from a mosaic (supergrid)
                                ! file set by GRID_FILE.
                                ! cartesian - use a (flat) Cartesian grid.
                                ! spherical - use a simple spherical grid.
                                ! mercator - use a Mercator spherical grid."

GRID_FILE = ocean_hgrid_221123.nc
                                ! "Name of the file from which to read horizontal grid data."

USE_TRIPOLAR_GEOLONB_BUG = False
                                ! "[Boolean] default = True
                                ! If true, use older code that incorrectly sets the longitude
                                ! in some points along the tripolar fold to be off by 360 degrees."

TOPO_CONFIG = file
                                ! "This specifies how bathymetry is specified:
                                ! file - read bathymetric information from the file
                                ! specified by (TOPO_FILE).
                                ! flat - flat bottom set to MAXIMUM_DEPTH.
                                ! bowl - an analytically specified bowl-shaped basin
                                ! ranging between MAXIMUM_DEPTH and MINIMUM_DEPTH.
                                ! spoon - a similar shape to 'bowl', but with an vertical
                                ! wall at the southern face.
                                ! halfpipe - a zonally uniform channel with a half-sine
                                ! profile in the meridional direction.
                                ! benchmark - use the benchmark test case topography.
                                ! DOME - use a slope and channel configuration for the
                                ! DOME sill-overflow test case.
                                ! DOME2D - use a shelf and slope configuration for the
                                ! DOME2D gravity current/overflow test case.
                                ! seamount - Gaussian bump for spontaneous motion test case.
                                ! USER - call a user modified routine."

TOPO_FILE = ocean_topo_tx2_3v2_240501.nc
                                ! "default = 'topog.nc'
                                ! The file from which the bathymetry is read."

MAXIMUM_DEPTH = 6000.0
                                ! "[m]
                                ! The maximum depth of the ocean."

MINIMUM_DEPTH = 9.5
                                ! "[m] default = 0.0
                                ! If MASKING_DEPTH is unspecified, then anything shallower than
                                ! MINIMUM_DEPTH is assumed to be land and all fluxes are masked out.
                                ! If MASKING_DEPTH is specified, then all depths shallower than
                                ! MINIMUM_DEPTH but depper than MASKING_DEPTH are rounded to
                                ! MINIMUM_DEPTH."

MASKING_DEPTH = 0.0
                                ! "[m] default = -9999.0
                                ! The depth below which to mask points as land points, for which all
                                ! fluxes are zeroed out. MASKING_DEPTH is ignored if negative."

REMAPPING_SCHEME = PPM_CW
                                ! "default = 'PLM'
                                ! This sets the reconstruction scheme used
                                ! for vertical remapping for all variables.
                                ! It can be one of the following schemes:
                                ! PCM         (1st-order accurate)
                                ! PLM         (2nd-order accurate)
                                ! PPM_H4      (3rd-order accurate)
                                ! PPM_IH4     (3rd-order accurate)
                                ! PQM_IH4IH3  (4th-order accurate)
                                ! PQM_IH6IH5  (5th-order accurate)"

INIT_LAYERS_FROM_Z_FILE = False
                                ! "[Boolean] default = False
                                ! If true, intialize the layer thicknesses, temperatures,
                                ! and salnities from a Z-space file on a latitude-
                                ! longitude grid."

TEMP_SALT_Z_INIT_FILE = woa18_04_initial_conditions.nc
                                ! "default = 'temp_salt_z.nc'
                                ! The name of the z-space input file used to initialize
                                ! the layer thicknesses, temperatures and salinities."

Z_INIT_FILE_PTEMP_VAR = theta0
                                ! "default = 'ptemp'
                                ! The name of the potential temperature variable in
                                ! TEMP_SALT_Z_INIT_FILE."

Z_INIT_FILE_SALT_VAR = s_an
                                ! "default = 'salt'
                                ! The name of the salinity variable in
                                ! TEMP_SALT_Z_INIT_FILE."

Z_INIT_REMAP_OLD_ALG = False
                                ! "[Boolean] default = True
                                ! If false, uses the preferred remapping algorithm for initialization. If true,
                                ! use an older, less robust algorithm for remapping."

USE_VARIABLE_MIXING = True
                                ! "[Boolean] default = False
                                ! If true, the variable mixing code will be called.  This
                                ! allows diagnostics to be created even if the scheme is
                                ! not used.  If KHTR_SLOPE_CFF>0 or  KhTh_Slope_Cff>0,
                                ! this is set to true regardless of what is in the
                                ! parameter file."

RESOLN_SCALED_KH = True
                                ! "[Boolean] default = False
                                ! If true, the Laplacian lateral viscosity is scaled away
                                ! when the first baroclinic deformation radius is well
                                ! resolved."

KHTH_SLOPE_CFF = 0.01
                                ! "[nondim] default = 0.0
                                ! The nondimensional coefficient in the Visbeck formula for the interface depth
                                ! diffusivity"

DEPTH_SCALED_KHTH = True
                                ! "[Boolean] default = False
                                !  If true,  KHTH is scaled away when the depth is shallower
                                !  than a reference depth: KHTH = MIN(1,H/H0)**N * KHTH,
                                !  where H0 is a reference depth, controlled via
                                !  DEPTH_SCALED_KHTH_H0, and theexponent (N) is
                                !  controlled via DEPTH_SCALED_KHTH_EXP."

DEPTH_SCALED_KHTH_H0 = 250.0
                                ! "[m] default = 1000.0
                                ! The depth above which KHTH is scaled away."

KHTH_USE_EBT_STRUCT = True
                                ! "[Boolean] default = False
                                ! If true, uses the equivalent barotropic structure
                                ! as the vertical structure of thickness diffusivity."

RESOLN_SCALED_KHTH = True
                                ! "[Boolean] default = False
                                ! If true, the interface depth diffusivity is scaled away
                                ! when the first baroclinic deformation radius is well
                                ! resolved."

RESOLN_SCALED_KHTR = True
                                ! "[Boolean] default = False
                                ! If true, the epipycnal tracer diffusivity is scaled away when the first
                                ! baroclinic deformation radius is well resolved."

USE_GM_WORK_BUG = False
                                ! "[Boolean] default = True
                                ! If true, compute the top-layer work tendency on the u-grid with the incorrect
                                ! sign, for legacy reproducibility."

USE_STORED_SLOPES = True
                                ! "[Boolean] default = False
                                ! If true, the isopycnal slopes are calculated once and
                                ! stored for re-use. This uses more memory but avoids calling
                                ! the equation of state more times than should be necessary."

USE_STANLEY_ISO = True
                                ! "[Boolean] default = False
                                ! If true, turn on Stanley SGS T variance parameterization in isopycnal slope code."

ETA_TOLERANCE = 1e-06
                                ! "[m] default = 3.15E-09
                                ! The tolerance for the differences between the
                                ! barotropic and baroclinic estimates of the sea surface
                                ! height due to the fluxes through each face.  The total
                                ! tolerance for SSH is 4 times this value.  The default
                                ! is 0.5*NK*ANGSTROM, and this should not be set less x
                                ! than about 10^-15*MAXIMUM_DEPTH."

USE_NEUTRAL_DIFFUSION = True
                                ! "[Boolean] default = False
                                ! If true, enables the neutral diffusion module."

NDIFF_INTERIOR_ONLY = True
                                ! "[Boolean] default = False
                                ! If true, only applies neutral diffusion in the ocean interior. That is, the
                                ! algorithm will exclude the surface and bottomboundary layers."

NDIFF_TAPERING = True
                                ! "[Boolean] default = False
                                ! If true, neutral diffusion linearly decays to zero within a transition
                                ! zone defined using boundary layer depths.  Only applicable when
                                ! NDIFF_INTERIOR_ONLY = True."

USE_HORIZONTAL_BOUNDARY_DIFFUSION = True
                                ! "[Boolean] default = False
                                ! If true, enables the horizontal boundary tracer's diffusion module."

HBD_LINEAR_TRANSITION = True
                                ! "[Boolean] default = False
                                ! If True, apply a linear transition at the base/top of the boundary.
                                ! The flux will be fully applied at k=k_min and zero at k=k_max."

SIMPLE_TKE_TO_KD = True
                                ! "[Boolean] default = False
                                ! If true, uses a simple estimate of Kd/TKE that will
                                ! work for arbitrary vertical coordinates. If false,
                                ! calculates Kd/TKE and bounds based on exact
                                ! energetics/nfor an isopycnal layer-formulation."

REGRIDDING_COORDINATE_MODE = HYCOM1
                                ! "default = 'LAYER'
                                ! Coordinate mode for vertical regridding.
                                ! Choose among the following possibilities:
                                ! LAYER - Isopycnal or stacked shallow water layers
                                ! ZSTAR, Z* - stetched geopotential z*
                                ! SIGMA_SHELF_ZSTAR - stetched geopotential z* ignoring shelf
                                ! SIGMA - terrain following coordinates
                                ! RHO   - continuous isopycnal
                                ! HYCOM1 - HyCOM-like hybrid coordinate
                                ! SLIGHT - stretched coordinates above continuous isopycnal
                                ! ADAPTIVE - optimize for smooth neutral density surfaces"

ALE_COORDINATE_CONFIG = "HYBRID:hybrid_75layer_zstar2.50m-2020-11-23.nc,sigma2,dz"
                                ! "default = 'UNIFORM'
                                ! Determines how to specify the coordinate
                                ! resolution. Valid options are:
                                ! PARAM       - use the vector-parameter ALE_RESOLUTION
                                ! UNIFORM[:N] - uniformly distributed
                                ! FILE:string - read from a file. The string specifies
                                ! the filename and variable name, separated
                                ! by a comma or space, e.g. FILE:lev.nc,dz
                                ! or FILE:lev.nc,interfaces=zw
                                ! WOA09[:N]   - the WOA09 vertical grid (approximately)
                                ! FNC1:string - FNC1:dz_min,H_total,power,precision
                                ! HYBRID:string - read from a file. The string specifies
                                ! the filename and two variable names, separated
                                ! by a comma or space, for sigma-2 and dz. e.g.
                                ! HYBRID:vgrid.nc,sigma2,dz"

REGRID_COMPRESSIBILITY_FRACTION = 0.01
                                ! "[not defined] default = 0.0
                                ! When interpolating potential density profiles we can add
                                ! some artificial compressibility solely to make homogenous
                                ! regions appear stratified."

MAXIMUM_INT_DEPTH_CONFIG = "FNC1:5,8000.0,1.0,.01"
                                ! "default = 'NONE'
                                ! Determines how to specify the maximum interface depths.
                                ! Valid options are:
                                ! NONE        - there are no maximum interface depths
                                ! PARAM       - use the vector-parameter MAXIMUM_INTERFACE_DEPTHS
                                ! FILE:string - read from a file. The string specifies
                                ! the filename and variable name, separated
                                ! by a comma or space, e.g. FILE:lev.nc,Z
                                ! FNC1:string - FNC1:dz_min,H_total,power,precision
                                ! The list of maximum depths for each interface."

MAX_LAYER_THICKNESS_CONFIG = "FNC1:400,31000.0,0.1,.01"
                                ! "default = 'NONE'
                                ! Determines how to specify the maximum layer thicknesses.
                                ! Valid options are:
                                ! NONE        - there are no maximum layer thicknesses
                                ! PARAM       - use the vector-parameter MAX_LAYER_THICKNESS
                                ! FILE:string - read from a file. The string specifies
                                ! the filename and variable name, separated
                                ! by a comma or space, e.g. FILE:lev.nc,Z
                                ! FNC1:string - FNC1:dz_min,H_total,power,precision
                                ! The list of maximum thickness for each layer."

BOUND_CORIOLIS = True
                                ! "[Boolean] default = False
                                ! If true, the Coriolis terms at u-points are bounded by
                                ! the four estimates of (f+rv)v from the four neighboring
                                ! v-points, and similarly at v-points.  This option would
                                ! have no effect on the SADOURNY Coriolis scheme if it
                                ! were possible to use centered difference thickness fluxes."

MASS_WEIGHT_IN_PRESSURE_GRADIENT = True
                                ! "[Boolean] default = False
                                ! If true, use mass weighting when interpolation T/S for
                                ! top/bottom integrals in AFV pressure gradient calculation."

USE_STANLEY_PGF = True
                                ! "[Boolean] default = False
                                ! If true, turn on Stanley SGS T variance parameterization in PGF code."

LAPLACIAN = True
                                ! "[Boolean] default = False
                                ! If true, use a Laplacian horizontal viscosity."

KH_VEL_SCALE = 0.0
                                ! "[m s-1] default = 0.0
                                ! The velocity scale which is multiplied by the grid
                                ! spacing to calculate the Laplacian viscosity.
                                ! The final viscosity is the largest of this scaled
                                ! viscosity, the Smagorinsky viscosity and KH."

KH_SIN_LAT = 0.0
                                ! "[m2 s-1] default = 0.0
                                ! The amplitude of a latidutinally-dependent background
                                ! viscosity of the form KH_SIN_LAT*(SIN(LAT)**KH_PWR_OF_SINE)."

BIHARMONIC = True
                                ! "[Boolean] default = True
                                ! If true, use a biharmonic horizontal viscosity.
                                ! BIHARMONIC may be used with LAPLACIAN."

AH = 1000000000000.0
                                ! "[m4 s-1] default = 0.0
                                ! The background biharmonic horizontal viscosity."

LEITH_AH = True
                                ! "[Boolean] default = False
                                ! If true, use a biharmonic Leith nonlinear eddy viscosity."

LEITH_BI_CONST = 128.0
                                ! "[nondim] default = 0.0
                                ! The nondimensional biharmonic Leith constant, typical values are thus far
                                ! undetermined."

USE_LAND_MASK_FOR_HVISC = True
                                ! "[Boolean] default = False
                                ! If true, use Use the land mask for the computation of thicknesses
                                ! at velocity locations. This eliminates the dependence on arbitrary
                                ! values over land or outside of the domain. Default is False in order to
                                ! maintain answers with legacy experiments but should be changed to True
                                ! for new experiments."

HMIX_FIXED = 0.5
                                ! "[m]
                                ! The prescribed depth over which the near-surface
                                ! viscosity and diffusivity are elevated when the bulk
                                ! mixed layer is not used."

CHANNEL_DRAG = True
                                ! "[Boolean] default = False
                                ! If true, the bottom drag is exerted directly on each
                                ! layer proportional to the fraction of the bottom it
                                ! overlies."

HBBL = 10.0
                                ! "[m]
                                !  The thickness of a bottom boundary layer with a viscosity of KVBBL if
                                !  BOTTOMDRAGLAW is not defined, or the thickness over which near-bottom