2023-11-17 14:48:08: case.setup starting 
 ---------------------------------------------------
2023-11-17 14:48:10: case.setup success 
 ---------------------------------------------------
2023-11-17 14:48:14: xmlchange success <command> ./xmlchange --append CAM_CONFIG_OPTS=-cosp  </command>
 ---------------------------------------------------
2023-11-17 14:48:41: case.build starting 
 ---------------------------------------------------
2023-11-17 14:51:04: case.build starting 
 ---------------------------------------------------
2023-11-17 14:51:32: case.build error 
ERROR: /glade/work/hannay/cesm_tags/cesm2_3_alpha16g/libraries/FMS/buildlib FAILED, cat /glade/derecho/scratch/hannay/b.e23_alpha16g.BLT1850.ne30_t232.060/bld/FMS.bldlog.231117-145105
 ---------------------------------------------------
2023-11-17 14:52:29: case.build starting 
 ---------------------------------------------------
2023-11-17 14:52:55: case.build error 
ERROR: /glade/work/hannay/cesm_tags/cesm2_3_alpha16g/libraries/FMS/buildlib FAILED, cat /glade/derecho/scratch/hannay/b.e23_alpha16g.BLT1850.ne30_t232.060/bld/FMS.bldlog.231117-144841
 ---------------------------------------------------
2023-11-17 15:06:41: case.build success 
 ---------------------------------------------------
2023-11-17 15:07:57: xmlchange success <command> ./xmlchange PROJECT=CESM0023,RESUBMIT=5,STOP_N=2,STOP_OPTION=nyears  </command>
 ---------------------------------------------------
2023-11-17 15:07:57: xmlchange success <command> ./xmlchange REST_OPTION=nyears,REST_N=1  </command>
 ---------------------------------------------------
2023-11-17 15:07:58: xmlchange success <command> ./xmlchange JOB_WALLCLOCK_TIME=12:00:00  </command>
 ---------------------------------------------------
2023-11-17 15:08:32: case.submit starting 2536880.desched1
 ---------------------------------------------------
2023-11-17 15:08:32: case.submit success 2536880.desched1
 ---------------------------------------------------
2023-11-17 15:08:51: case.run starting 2536879.desched1
 ---------------------------------------------------
2023-11-17 15:09:01: model execution starting 2536879.desched1
 ---------------------------------------------------
2023-11-17 23:30:45: model execution success 2536879.desched1
 ---------------------------------------------------
2023-11-17 23:30:45: case.run success 2536879.desched1
 ---------------------------------------------------
2023-11-17 23:31:04: st_archive starting 2536880.desched1
 ---------------------------------------------------
2023-11-17 23:31:44: st_archive success 2536880.desched1
 ---------------------------------------------------
2023-11-17 23:31:45: case.submit starting 2537978.desched1
 ---------------------------------------------------
2023-11-17 23:31:45: case.submit success 2537978.desched1
 ---------------------------------------------------
2023-11-17 23:32:22: case.run starting 2537977.desched1
 ---------------------------------------------------
2023-11-17 23:32:33: model execution starting 2537977.desched1
 ---------------------------------------------------
2023-11-18 07:47:58: model execution success 2537977.desched1
 ---------------------------------------------------
2023-11-18 07:47:59: case.run success 2537977.desched1
 ---------------------------------------------------
2023-11-18 07:48:16: st_archive starting 2537978.desched1
 ---------------------------------------------------
2023-11-18 07:48:58: st_archive success 2537978.desched1
 ---------------------------------------------------
2023-11-18 07:48:58: case.submit starting 2539590.desched1
 ---------------------------------------------------
2023-11-18 07:48:58: case.submit success 2539590.desched1
 ---------------------------------------------------
2023-11-18 07:49:26: case.run starting 2539589.desched1
 ---------------------------------------------------
2023-11-18 07:49:32: model execution starting 2539589.desched1
 ---------------------------------------------------
2023-11-18 16:02:35: model execution success 2539589.desched1
 ---------------------------------------------------
2023-11-18 16:02:35: case.run success 2539589.desched1
 ---------------------------------------------------
2023-11-18 16:02:54: st_archive starting 2539590.desched1
 ---------------------------------------------------
2023-11-18 16:03:31: st_archive success 2539590.desched1
 ---------------------------------------------------
2023-11-18 16:03:36: case.submit starting 2541496.desched1
 ---------------------------------------------------
2023-11-18 16:03:36: case.submit success 2541496.desched1
 ---------------------------------------------------
2023-11-18 16:03:51: case.run starting 2541495.desched1
 ---------------------------------------------------
2023-11-18 16:03:58: model execution starting 2541495.desched1
 ---------------------------------------------------
2023-11-19 00:18:51: model execution success 2541495.desched1
 ---------------------------------------------------
2023-11-19 00:18:52: case.run success 2541495.desched1
 ---------------------------------------------------
2023-11-19 01:45:52: st_archive starting 2541496.desched1
 ---------------------------------------------------
2023-11-19 01:46:28: st_archive success 2541496.desched1
 ---------------------------------------------------
2023-11-19 01:46:29: case.submit starting 2541849.desched1
 ---------------------------------------------------
2023-11-19 01:46:29: case.submit success 2541849.desched1
 ---------------------------------------------------
2023-11-19 01:47:04: case.run starting 2541848.desched1
 ---------------------------------------------------
2023-11-19 01:47:20: model execution starting 2541848.desched1
 ---------------------------------------------------
2023-11-19 10:03:08: model execution success 2541848.desched1
 ---------------------------------------------------
2023-11-19 10:03:08: case.run success 2541848.desched1
 ---------------------------------------------------
2023-11-19 10:04:21: st_archive starting 2541849.desched1
 ---------------------------------------------------
2023-11-19 10:04:57: st_archive success 2541849.desched1
 ---------------------------------------------------
2023-11-19 10:05:00: case.submit starting 2542084.desched1
 ---------------------------------------------------
2023-11-19 10:05:00: case.submit success 2542084.desched1
 ---------------------------------------------------
2023-11-19 10:05:22: case.run starting 2542082.desched1
 ---------------------------------------------------
2023-11-19 10:05:33: model execution starting 2542082.desched1
 ---------------------------------------------------
2023-11-19 18:22:37: model execution success 2542082.desched1
 ---------------------------------------------------
2023-11-19 18:22:37: case.run success 2542082.desched1
 ---------------------------------------------------
2023-11-19 18:23:03: st_archive starting 2542084.desched1
 ---------------------------------------------------
2023-11-19 18:23:39: st_archive success 2542084.desched1
 ---------------------------------------------------
