2023-08-18 15:53:37: case.setup starting 
 ---------------------------------------------------
2023-08-18 15:53:39: case.setup success 
 ---------------------------------------------------
2023-08-18 15:53:51: case.setup starting 
 ---------------------------------------------------
2023-08-18 15:53:52: case.setup success 
 ---------------------------------------------------
2023-08-18 15:58:07: case.setup starting 
 ---------------------------------------------------
2023-08-18 15:58:08: case.setup success 
 ---------------------------------------------------
2023-08-18 15:58:24: case.build starting 
 ---------------------------------------------------
2023-08-18 16:06:03: case.build starting 
 ---------------------------------------------------
2023-08-18 16:06:45: case.build error 
ERROR: BUILD FAIL: mom.buildlib failed, cat /glade/derecho/scratch/gmarques/b.e23_alpha16b.BLT1850.ne30_t232.039/bld/ocn.bldlog.230818-155824
BUILD FAIL: cam.buildlib failed, cat /glade/derecho/scratch/gmarques/b.e23_alpha16b.BLT1850.ne30_t232.039/bld/atm.bldlog.230818-155824
BUILD FAIL: cice.buildlib failed, cat /glade/derecho/scratch/gmarques/b.e23_alpha16b.BLT1850.ne30_t232.039/bld/ice.bldlog.230818-155824
BUILD FAIL: cism.buildlib failed, cat /glade/derecho/scratch/gmarques/b.e23_alpha16b.BLT1850.ne30_t232.039/bld/glc.bldlog.230818-155824
 ---------------------------------------------------
2023-08-18 16:08:23: case.build error 
ERROR: BUILD FAIL: cism.buildlib failed, cat /glade/derecho/scratch/gmarques/b.e23_alpha16b.BLT1850.ne30_t232.039/bld/glc.bldlog.230818-160603
 ---------------------------------------------------
2023-08-18 16:12:29: build.clean starting 
 ---------------------------------------------------
2023-08-18 16:12:33: build.clean success 
 ---------------------------------------------------
2023-08-18 16:12:36: case.build starting 
 ---------------------------------------------------
2023-08-18 16:31:20: case.build success 
 ---------------------------------------------------
2023-08-18 16:36:45: xmlchange success <command> ./xmlchange RESUBMIT=10  </command>
 ---------------------------------------------------
2023-08-18 16:37:21: case.submit starting 1262768.desched1
 ---------------------------------------------------
2023-08-18 16:37:21: case.submit success 1262768.desched1
 ---------------------------------------------------
2023-08-18 16:37:40: case.run starting 1262767.desched1
 ---------------------------------------------------
2023-08-18 16:37:44: model execution starting 1262767.desched1
 ---------------------------------------------------
2023-08-19 00:30:03: model execution success 1262767.desched1
 ---------------------------------------------------
2023-08-19 00:30:03: case.run success 1262767.desched1
 ---------------------------------------------------
2023-08-19 00:30:21: st_archive starting 1262768.desched1
 ---------------------------------------------------
2023-08-19 00:30:37: st_archive success 1262768.desched1
 ---------------------------------------------------
2023-08-19 00:30:37: case.submit starting 1263031.desched1
 ---------------------------------------------------
2023-08-19 00:30:37: case.submit success 1263031.desched1
 ---------------------------------------------------
2023-08-19 00:30:55: case.run starting 1263030.desched1
 ---------------------------------------------------
2023-08-19 00:31:00: model execution starting 1263030.desched1
 ---------------------------------------------------
2023-08-19 08:25:30: model execution success 1263030.desched1
 ---------------------------------------------------
2023-08-19 08:25:30: case.run success 1263030.desched1
 ---------------------------------------------------
2023-08-19 08:25:49: st_archive starting 1263031.desched1
 ---------------------------------------------------
2023-08-19 08:26:06: st_archive success 1263031.desched1
 ---------------------------------------------------
2023-08-19 08:26:06: case.submit starting 1263166.desched1
 ---------------------------------------------------
2023-08-19 08:26:06: case.submit success 1263166.desched1
 ---------------------------------------------------
2023-08-19 08:26:28: case.run starting 1263165.desched1
 ---------------------------------------------------
2023-08-19 08:26:32: model execution starting 1263165.desched1
 ---------------------------------------------------
2023-08-19 16:17:58: model execution success 1263165.desched1
 ---------------------------------------------------
2023-08-19 16:17:58: case.run success 1263165.desched1
 ---------------------------------------------------
2023-08-19 16:18:15: st_archive starting 1263166.desched1
 ---------------------------------------------------
2023-08-19 16:18:33: st_archive success 1263166.desched1
 ---------------------------------------------------
2023-08-19 16:18:34: case.submit starting 1263400.desched1
 ---------------------------------------------------
2023-08-19 16:18:34: case.submit success 1263400.desched1
 ---------------------------------------------------
2023-08-19 16:18:55: case.run starting 1263399.desched1
 ---------------------------------------------------
2023-08-19 16:18:59: model execution starting 1263399.desched1
 ---------------------------------------------------
2023-08-20 00:13:47: model execution success 1263399.desched1
 ---------------------------------------------------
2023-08-20 00:13:47: case.run success 1263399.desched1
 ---------------------------------------------------
2023-08-20 00:14:06: st_archive starting 1263400.desched1
 ---------------------------------------------------
2023-08-20 00:14:23: st_archive success 1263400.desched1
 ---------------------------------------------------
2023-08-20 00:14:23: case.submit starting 1263599.desched1
 ---------------------------------------------------
2023-08-20 00:14:23: case.submit success 1263599.desched1
 ---------------------------------------------------
2023-08-20 00:14:36: case.run starting 1263598.desched1
 ---------------------------------------------------
2023-08-20 00:14:39: model execution starting 1263598.desched1
 ---------------------------------------------------
2023-08-20 08:11:03: model execution success 1263598.desched1
 ---------------------------------------------------
2023-08-20 08:11:03: case.run success 1263598.desched1
 ---------------------------------------------------
2023-08-20 08:11:21: st_archive starting 1263599.desched1
 ---------------------------------------------------
2023-08-20 08:11:38: st_archive success 1263599.desched1
 ---------------------------------------------------
2023-08-20 08:11:39: case.submit starting 1263692.desched1
 ---------------------------------------------------
2023-08-20 08:11:39: case.submit success 1263692.desched1
 ---------------------------------------------------
2023-08-20 08:11:59: case.run starting 1263691.desched1
 ---------------------------------------------------
2023-08-20 08:12:03: model execution starting 1263691.desched1
 ---------------------------------------------------
2023-08-20 16:12:04: model execution success 1263691.desched1
 ---------------------------------------------------
2023-08-20 16:12:04: case.run success 1263691.desched1
 ---------------------------------------------------
2023-08-20 16:12:16: st_archive starting 1263692.desched1
 ---------------------------------------------------
2023-08-20 16:12:33: st_archive success 1263692.desched1
 ---------------------------------------------------
2023-08-20 16:12:34: case.submit starting 1263947.desched1
 ---------------------------------------------------
2023-08-20 16:12:34: case.submit success 1263947.desched1
 ---------------------------------------------------
2023-08-20 16:12:48: case.run starting 1263946.desched1
 ---------------------------------------------------
2023-08-20 16:12:51: model execution starting 1263946.desched1
 ---------------------------------------------------
2023-08-21 00:12:53: model execution success 1263946.desched1
 ---------------------------------------------------
2023-08-21 00:12:53: case.run success 1263946.desched1
 ---------------------------------------------------
2023-08-21 00:13:16: st_archive starting 1263947.desched1
 ---------------------------------------------------
2023-08-21 00:13:34: st_archive success 1263947.desched1
 ---------------------------------------------------
2023-08-21 00:13:34: case.submit starting 1264244.desched1
 ---------------------------------------------------
2023-08-21 00:13:34: case.submit success 1264244.desched1
 ---------------------------------------------------
2023-08-21 00:13:49: case.run starting 1264243.desched1
 ---------------------------------------------------
2023-08-21 00:13:52: model execution starting 1264243.desched1
 ---------------------------------------------------
2023-08-21 08:11:35: model execution success 1264243.desched1
 ---------------------------------------------------
2023-08-21 08:11:35: case.run success 1264243.desched1
 ---------------------------------------------------
2023-08-21 08:11:56: st_archive starting 1264244.desched1
 ---------------------------------------------------
2023-08-21 08:12:15: st_archive success 1264244.desched1
 ---------------------------------------------------
2023-08-21 08:12:15: case.submit starting 1264825.desched1
 ---------------------------------------------------
2023-08-21 08:12:15: case.submit success 1264825.desched1
 ---------------------------------------------------
2023-08-21 08:12:30: case.run starting 1264824.desched1
 ---------------------------------------------------
2023-08-21 08:12:34: model execution starting 1264824.desched1
 ---------------------------------------------------
2023-08-21 16:12:43: model execution success 1264824.desched1
 ---------------------------------------------------
2023-08-21 16:12:43: case.run success 1264824.desched1
 ---------------------------------------------------
2023-08-21 16:13:06: st_archive starting 1264825.desched1
 ---------------------------------------------------
2023-08-21 16:13:29: st_archive success 1264825.desched1
 ---------------------------------------------------
2023-08-21 16:13:29: case.submit starting 1283427.desched1
 ---------------------------------------------------
2023-08-21 16:13:29: case.submit success 1283427.desched1
 ---------------------------------------------------
2023-08-21 16:13:46: case.run starting 1283426.desched1
 ---------------------------------------------------
2023-08-21 16:13:51: model execution starting 1283426.desched1
 ---------------------------------------------------
2023-08-22 00:17:11: model execution success 1283426.desched1
 ---------------------------------------------------
2023-08-22 00:17:12: case.run success 1283426.desched1
 ---------------------------------------------------
2023-08-22 00:17:33: st_archive starting 1283427.desched1
 ---------------------------------------------------
2023-08-22 00:17:52: st_archive success 1283427.desched1
 ---------------------------------------------------
2023-08-22 00:17:53: case.submit starting 1283707.desched1
 ---------------------------------------------------
2023-08-22 00:17:53: case.submit success 1283707.desched1
 ---------------------------------------------------
2023-08-22 00:18:11: case.run starting 1283706.desched1
 ---------------------------------------------------
2023-08-22 00:18:16: model execution starting 1283706.desched1
 ---------------------------------------------------
2023-08-22 08:15:52: model execution success 1283706.desched1
 ---------------------------------------------------
2023-08-22 08:15:52: case.run success 1283706.desched1
 ---------------------------------------------------
2023-08-22 08:16:11: st_archive starting 1283707.desched1
 ---------------------------------------------------
2023-08-22 08:16:28: st_archive success 1283707.desched1
 ---------------------------------------------------
2023-08-22 13:28:32: xmlchange success <command> ./xmlchange RESUBMIT=19  </command>
 ---------------------------------------------------
2023-08-22 13:28:43: case.submit starting 1284578.desched1
 ---------------------------------------------------
2023-08-22 13:28:43: case.submit success 1284578.desched1
 ---------------------------------------------------
2023-08-22 13:29:01: case.run starting 1284577.desched1
 ---------------------------------------------------
2023-08-22 13:29:06: model execution starting 1284577.desched1
 ---------------------------------------------------
2023-08-22 21:17:23: model execution success 1284577.desched1
 ---------------------------------------------------
2023-08-22 21:17:23: case.run success 1284577.desched1
 ---------------------------------------------------
2023-08-22 21:17:49: st_archive starting 1284578.desched1
 ---------------------------------------------------
2023-08-22 21:18:06: st_archive success 1284578.desched1
 ---------------------------------------------------
2023-08-22 21:18:07: case.submit starting 1291616.desched1
 ---------------------------------------------------
2023-08-22 21:18:07: case.submit success 1291616.desched1
 ---------------------------------------------------
2023-08-22 21:18:33: case.run starting 1291615.desched1
 ---------------------------------------------------
2023-08-22 21:18:38: model execution starting 1291615.desched1
 ---------------------------------------------------
2023-08-23 05:35:51: model execution success 1291615.desched1
 ---------------------------------------------------
2023-08-23 05:35:51: case.run success 1291615.desched1
 ---------------------------------------------------
2023-08-23 05:36:10: st_archive starting 1291616.desched1
 ---------------------------------------------------
2023-08-23 05:36:28: st_archive success 1291616.desched1
 ---------------------------------------------------
2023-08-23 05:36:29: case.submit starting 1293055.desched1
 ---------------------------------------------------
2023-08-23 05:36:29: case.submit success 1293055.desched1
 ---------------------------------------------------
2023-08-23 05:36:40: case.run starting 1293054.desched1
 ---------------------------------------------------
2023-08-23 05:36:44: model execution starting 1293054.desched1
 ---------------------------------------------------
2023-08-23 13:35:20: model execution success 1293054.desched1
 ---------------------------------------------------
2023-08-23 13:35:20: case.run success 1293054.desched1
 ---------------------------------------------------
2023-08-23 13:36:02: st_archive starting 1293055.desched1
 ---------------------------------------------------
2023-08-23 13:36:19: st_archive success 1293055.desched1
 ---------------------------------------------------
2023-08-23 13:36:19: case.submit starting 1293488.desched1
 ---------------------------------------------------
2023-08-23 13:36:19: case.submit success 1293488.desched1
 ---------------------------------------------------
2023-08-23 13:36:33: case.run starting 1293487.desched1
 ---------------------------------------------------
2023-08-23 13:36:36: model execution starting 1293487.desched1
 ---------------------------------------------------
2023-08-23 21:49:27: model execution success 1293487.desched1
 ---------------------------------------------------
2023-08-23 21:49:27: case.run success 1293487.desched1
 ---------------------------------------------------
2023-08-23 21:49:49: st_archive starting 1293488.desched1
 ---------------------------------------------------
2023-08-23 21:50:06: st_archive success 1293488.desched1
 ---------------------------------------------------
2023-08-23 21:50:07: case.submit starting 1293768.desched1
 ---------------------------------------------------
2023-08-23 21:50:07: case.submit success 1293768.desched1
 ---------------------------------------------------
2023-08-23 21:50:20: case.run starting 1293767.desched1
 ---------------------------------------------------
2023-08-23 21:50:24: model execution starting 1293767.desched1
 ---------------------------------------------------
2023-08-24 05:48:08: model execution success 1293767.desched1
 ---------------------------------------------------
2023-08-24 05:48:08: case.run success 1293767.desched1
 ---------------------------------------------------
2023-08-24 05:48:28: st_archive starting 1293768.desched1
 ---------------------------------------------------
2023-08-24 05:48:46: st_archive success 1293768.desched1
 ---------------------------------------------------
2023-08-24 05:48:47: case.submit starting 1294063.desched1
 ---------------------------------------------------
2023-08-24 05:48:47: case.submit success 1294063.desched1
 ---------------------------------------------------
2023-08-24 05:49:00: case.run starting 1294062.desched1
 ---------------------------------------------------
2023-08-24 05:49:03: model execution starting 1294062.desched1
 ---------------------------------------------------
2023-08-24 13:48:38: model execution success 1294062.desched1
 ---------------------------------------------------
2023-08-24 13:48:38: case.run success 1294062.desched1
 ---------------------------------------------------
2023-08-24 13:48:57: st_archive starting 1294063.desched1
 ---------------------------------------------------
2023-08-24 13:49:19: st_archive success 1294063.desched1
 ---------------------------------------------------
2023-08-24 13:49:19: case.submit starting 1294505.desched1
 ---------------------------------------------------
2023-08-24 13:49:19: case.submit success 1294505.desched1
 ---------------------------------------------------
2023-08-24 13:49:45: case.run starting 1294504.desched1
 ---------------------------------------------------
2023-08-24 13:49:50: model execution starting 1294504.desched1
 ---------------------------------------------------
2023-08-24 21:49:32: model execution success 1294504.desched1
 ---------------------------------------------------
2023-08-24 21:49:32: case.run success 1294504.desched1
 ---------------------------------------------------
2023-08-24 21:49:53: st_archive starting 1294505.desched1
 ---------------------------------------------------
2023-08-24 21:50:11: st_archive success 1294505.desched1
 ---------------------------------------------------
2023-08-24 21:50:12: case.submit starting 1294741.desched1
 ---------------------------------------------------
2023-08-24 21:50:12: case.submit success 1294741.desched1
 ---------------------------------------------------
2023-08-24 21:50:25: case.run starting 1294740.desched1
 ---------------------------------------------------
2023-08-24 21:50:29: model execution starting 1294740.desched1
 ---------------------------------------------------
2023-08-25 05:52:07: model execution success 1294740.desched1
 ---------------------------------------------------
2023-08-25 05:52:07: case.run success 1294740.desched1
 ---------------------------------------------------
2023-08-25 05:59:25: st_archive starting 1294741.desched1
 ---------------------------------------------------
2023-08-25 05:59:43: st_archive success 1294741.desched1
 ---------------------------------------------------
2023-08-25 05:59:43: case.submit starting 1297500.desched1
 ---------------------------------------------------
2023-08-25 05:59:43: case.submit success 1297500.desched1
 ---------------------------------------------------
2023-08-25 05:59:56: case.run starting 1297499.desched1
 ---------------------------------------------------
2023-08-25 06:00:00: model execution starting 1297499.desched1
 ---------------------------------------------------
2023-08-25 06:00:16: model execution error 
ERROR: Command: 'mpiexec  --label  --line-buffer  -n 2176 /glade/derecho/scratch/gmarques//b.e23_alpha16b.BLT1850.ne30_t232.039/bld/cesm.exe   >> cesm.log.$LID 2>&1 ' failed with error '' from dir '/glade/derecho/scratch/gmarques//b.e23_alpha16b.BLT1850.ne30_t232.039/run'
 ---------------------------------------------------
2023-08-25 06:00:16: case.run error 
ERROR: RUN FAIL: Command 'mpiexec  --label  --line-buffer  -n 2176 /glade/derecho/scratch/gmarques//b.e23_alpha16b.BLT1850.ne30_t232.039/bld/cesm.exe   >> cesm.log.$LID 2>&1 ' failed
See log file for details: /glade/derecho/scratch/gmarques//b.e23_alpha16b.BLT1850.ne30_t232.039/run/cesm.log.1297499.desched1.230825-055956
 ---------------------------------------------------
