2023-08-08 21:36:10: case.setup starting 
 ---------------------------------------------------
2023-08-08 21:36:12: case.setup success 
 ---------------------------------------------------
2023-08-08 21:36:17: xmlchange success <command> ./xmlchange --append CAM_CONFIG_OPTS=-cosp  </command>
 ---------------------------------------------------
2023-08-08 21:37:21: case.build starting 
 ---------------------------------------------------
2023-08-08 21:38:38: case.build starting 
 ---------------------------------------------------
2023-08-08 21:43:26: case.build error 
ERROR: File /glade/p/cesmdata/cseg/runs/cesm2_0/b.e23_alpha16b.BLT1850.ne30_t232.035/env_run.xml appears to have changed without a corresponding invalidation.
 ---------------------------------------------------
2023-08-08 21:48:42: case.build success 
 ---------------------------------------------------
2023-08-08 21:49:26: case.build starting 
 ---------------------------------------------------
2023-08-08 21:50:01: case.build success 
 ---------------------------------------------------
2023-08-08 21:52:19: case.build starting 
 ---------------------------------------------------
2023-08-08 21:52:54: case.build success 
 ---------------------------------------------------
2023-08-08 21:57:50: xmlchange success <command> ./xmlchange PROJECT=CESM0023,RESUBMIT=10,STOP_N=2,STOP_OPTION=nyears  </command>
 ---------------------------------------------------
2023-08-08 21:57:51: xmlchange success <command> ./xmlchange REST_OPTION=nyears,REST_N=1  </command>
 ---------------------------------------------------
2023-08-08 21:57:51: xmlchange success <command> ./xmlchange JOB_WALLCLOCK_TIME=12:00:00  </command>
 ---------------------------------------------------
2023-08-08 21:57:58: case.submit starting 1253638.desched1
 ---------------------------------------------------
2023-08-08 21:57:58: case.submit success 1253638.desched1
 ---------------------------------------------------
2023-08-08 21:58:05: case.run starting 1253637.desched1
 ---------------------------------------------------
2023-08-08 21:58:08: model execution starting 1253637.desched1
 ---------------------------------------------------
2023-08-09 05:38:29: model execution success 1253637.desched1
 ---------------------------------------------------
2023-08-09 05:38:29: case.run success 1253637.desched1
 ---------------------------------------------------
2023-08-09 05:38:41: st_archive starting 1253638.desched1
 ---------------------------------------------------
2023-08-09 05:39:00: st_archive success 1253638.desched1
 ---------------------------------------------------
2023-08-09 05:39:01: case.submit starting 1253975.desched1
 ---------------------------------------------------
2023-08-09 05:39:01: case.submit success 1253975.desched1
 ---------------------------------------------------
2023-08-09 05:39:09: case.run starting 1253974.desched1
 ---------------------------------------------------
2023-08-09 05:39:12: model execution starting 1253974.desched1
 ---------------------------------------------------
2023-08-09 13:24:37: model execution success 1253974.desched1
 ---------------------------------------------------
2023-08-09 13:24:37: case.run success 1253974.desched1
 ---------------------------------------------------
2023-08-09 13:24:50: st_archive starting 1253975.desched1
 ---------------------------------------------------
2023-08-09 13:25:07: st_archive success 1253975.desched1
 ---------------------------------------------------
2023-08-09 13:25:08: case.submit starting 1254393.desched1
 ---------------------------------------------------
2023-08-09 13:25:08: case.submit success 1254393.desched1
 ---------------------------------------------------
2023-08-09 13:25:17: case.run starting 1254392.desched1
 ---------------------------------------------------
2023-08-09 13:25:20: model execution starting 1254392.desched1
 ---------------------------------------------------
2023-08-09 21:05:52: model execution success 1254392.desched1
 ---------------------------------------------------
2023-08-09 21:05:52: case.run success 1254392.desched1
 ---------------------------------------------------
2023-08-09 21:06:03: st_archive starting 1254393.desched1
 ---------------------------------------------------
2023-08-09 21:06:22: st_archive success 1254393.desched1
 ---------------------------------------------------
2023-08-09 21:06:23: case.submit starting 1255019.desched1
 ---------------------------------------------------
2023-08-09 21:06:23: case.submit success 1255019.desched1
 ---------------------------------------------------
2023-08-09 21:06:31: case.run starting 1255018.desched1
 ---------------------------------------------------
2023-08-09 21:06:34: model execution starting 1255018.desched1
 ---------------------------------------------------
2023-08-10 04:53:26: model execution success 1255018.desched1
 ---------------------------------------------------
2023-08-10 04:53:26: case.run success 1255018.desched1
 ---------------------------------------------------
2023-08-10 04:53:37: st_archive starting 1255019.desched1
 ---------------------------------------------------
2023-08-10 04:53:55: st_archive success 1255019.desched1
 ---------------------------------------------------
2023-08-10 04:53:55: case.submit starting 1255192.desched1
 ---------------------------------------------------
2023-08-10 04:53:55: case.submit success 1255192.desched1
 ---------------------------------------------------
2023-08-10 04:54:04: case.run starting 1255191.desched1
 ---------------------------------------------------
2023-08-10 04:54:07: model execution starting 1255191.desched1
 ---------------------------------------------------
2023-08-10 12:36:54: model execution success 1255191.desched1
 ---------------------------------------------------
2023-08-10 12:36:54: case.run success 1255191.desched1
 ---------------------------------------------------
2023-08-10 12:37:05: st_archive starting 1255192.desched1
 ---------------------------------------------------
2023-08-10 12:37:24: st_archive success 1255192.desched1
 ---------------------------------------------------
2023-08-10 12:37:25: case.submit starting 1255495.desched1
 ---------------------------------------------------
2023-08-10 12:37:25: case.submit success 1255495.desched1
 ---------------------------------------------------
2023-08-10 12:37:34: case.run starting 1255494.desched1
 ---------------------------------------------------
2023-08-10 12:37:37: model execution starting 1255494.desched1
 ---------------------------------------------------
2023-08-10 20:22:19: model execution success 1255494.desched1
 ---------------------------------------------------
2023-08-10 20:22:19: case.run success 1255494.desched1
 ---------------------------------------------------
2023-08-10 20:22:29: st_archive starting 1255495.desched1
 ---------------------------------------------------
2023-08-10 20:22:49: st_archive success 1255495.desched1
 ---------------------------------------------------
2023-08-10 20:22:50: case.submit starting 1255668.desched1
 ---------------------------------------------------
2023-08-10 20:22:50: case.submit success 1255668.desched1
 ---------------------------------------------------
2023-08-10 20:22:58: case.run starting 1255667.desched1
 ---------------------------------------------------
2023-08-10 20:23:01: model execution starting 1255667.desched1
 ---------------------------------------------------
2023-08-11 04:07:28: model execution success 1255667.desched1
 ---------------------------------------------------
2023-08-11 04:07:28: case.run success 1255667.desched1
 ---------------------------------------------------
2023-08-11 04:07:39: st_archive starting 1255668.desched1
 ---------------------------------------------------
2023-08-11 04:08:00: st_archive success 1255668.desched1
 ---------------------------------------------------
2023-08-11 04:08:00: case.submit starting 1255840.desched1
 ---------------------------------------------------
2023-08-11 04:08:00: case.submit success 1255840.desched1
 ---------------------------------------------------
2023-08-11 04:08:09: case.run starting 1255839.desched1
 ---------------------------------------------------
2023-08-11 04:08:12: model execution starting 1255839.desched1
 ---------------------------------------------------
2023-08-11 11:53:02: model execution success 1255839.desched1
 ---------------------------------------------------
2023-08-11 11:53:02: case.run success 1255839.desched1
 ---------------------------------------------------
2023-08-11 11:53:14: st_archive starting 1255840.desched1
 ---------------------------------------------------
2023-08-11 11:53:36: st_archive success 1255840.desched1
 ---------------------------------------------------
2023-08-11 11:53:36: case.submit starting 1256198.desched1
 ---------------------------------------------------
2023-08-11 11:53:36: case.submit success 1256198.desched1
 ---------------------------------------------------
2023-08-11 11:53:45: case.run starting 1256197.desched1
 ---------------------------------------------------
2023-08-11 11:53:49: model execution starting 1256197.desched1
 ---------------------------------------------------
2023-08-11 19:37:49: model execution success 1256197.desched1
 ---------------------------------------------------
2023-08-11 19:37:49: case.run success 1256197.desched1
 ---------------------------------------------------
2023-08-11 19:38:01: st_archive starting 1256198.desched1
 ---------------------------------------------------
2023-08-11 19:38:21: st_archive success 1256198.desched1
 ---------------------------------------------------
2023-08-11 19:38:22: case.submit starting 1256440.desched1
 ---------------------------------------------------
2023-08-11 19:38:22: case.submit success 1256440.desched1
 ---------------------------------------------------
2023-08-11 19:38:31: case.run starting 1256439.desched1
 ---------------------------------------------------
2023-08-11 19:38:34: model execution starting 1256439.desched1
 ---------------------------------------------------
2023-08-12 03:29:58: model execution success 1256439.desched1
 ---------------------------------------------------
2023-08-12 03:29:58: case.run success 1256439.desched1
 ---------------------------------------------------
2023-08-12 03:30:09: st_archive starting 1256440.desched1
 ---------------------------------------------------
2023-08-12 03:30:29: st_archive success 1256440.desched1
 ---------------------------------------------------
2023-08-12 03:30:29: case.submit starting 1256780.desched1
 ---------------------------------------------------
2023-08-12 03:30:29: case.submit success 1256780.desched1
 ---------------------------------------------------
2023-08-12 03:30:38: case.run starting 1256779.desched1
 ---------------------------------------------------
2023-08-12 03:30:41: model execution starting 1256779.desched1
 ---------------------------------------------------
2023-08-12 11:23:33: model execution success 1256779.desched1
 ---------------------------------------------------
2023-08-12 11:23:33: case.run success 1256779.desched1
 ---------------------------------------------------
2023-08-12 11:23:50: st_archive starting 1256780.desched1
 ---------------------------------------------------
2023-08-12 11:24:12: st_archive success 1256780.desched1
 ---------------------------------------------------
2023-08-13 07:45:20: case.submit starting 1257250.desched1
 ---------------------------------------------------
2023-08-13 07:45:20: case.submit success 1257250.desched1
 ---------------------------------------------------
2023-08-13 07:45:31: case.run starting 1257249.desched1
 ---------------------------------------------------
2023-08-13 07:45:36: model execution starting 1257249.desched1
 ---------------------------------------------------
2023-08-13 15:34:11: model execution success 1257249.desched1
 ---------------------------------------------------
2023-08-13 15:34:11: case.run success 1257249.desched1
 ---------------------------------------------------
2023-08-13 15:34:22: st_archive starting 1257250.desched1
 ---------------------------------------------------
2023-08-13 15:34:44: st_archive success 1257250.desched1
 ---------------------------------------------------
2023-08-14 15:31:00: xmlchange success <command> ./xmlchange RESUBMIT=10  </command>
 ---------------------------------------------------
2023-08-14 15:31:11: case.submit starting 1258251.desched1
 ---------------------------------------------------
2023-08-14 15:31:11: case.submit success 1258251.desched1
 ---------------------------------------------------
2023-08-14 15:31:22: case.run starting 1258250.desched1
 ---------------------------------------------------
2023-08-14 15:31:27: model execution starting 1258250.desched1
 ---------------------------------------------------
2023-08-14 23:21:14: model execution success 1258250.desched1
 ---------------------------------------------------
2023-08-14 23:21:14: case.run success 1258250.desched1
 ---------------------------------------------------
2023-08-14 23:21:27: st_archive starting 1258251.desched1
 ---------------------------------------------------
2023-08-14 23:21:50: st_archive success 1258251.desched1
 ---------------------------------------------------
2023-08-14 23:21:50: case.submit starting 1258569.desched1
 ---------------------------------------------------
2023-08-14 23:21:50: case.submit success 1258569.desched1
 ---------------------------------------------------
2023-08-14 23:22:02: case.run starting 1258568.desched1
 ---------------------------------------------------
2023-08-14 23:22:06: model execution starting 1258568.desched1
 ---------------------------------------------------
2023-08-15 07:09:30: model execution success 1258568.desched1
 ---------------------------------------------------
2023-08-15 07:09:30: case.run success 1258568.desched1
 ---------------------------------------------------
2023-08-15 07:09:41: st_archive starting 1258569.desched1
 ---------------------------------------------------
2023-08-15 07:10:03: st_archive success 1258569.desched1
 ---------------------------------------------------
2023-08-15 07:10:04: case.submit starting 1258654.desched1
 ---------------------------------------------------
2023-08-15 07:10:04: case.submit success 1258654.desched1
 ---------------------------------------------------
2023-08-15 07:10:13: case.run starting 1258653.desched1
 ---------------------------------------------------
2023-08-15 07:10:16: model execution starting 1258653.desched1
 ---------------------------------------------------
2023-08-15 15:04:44: model execution success 1258653.desched1
 ---------------------------------------------------
2023-08-15 15:04:44: case.run success 1258653.desched1
 ---------------------------------------------------
2023-08-15 15:04:56: st_archive starting 1258654.desched1
 ---------------------------------------------------
2023-08-15 15:05:20: st_archive success 1258654.desched1
 ---------------------------------------------------
2023-08-15 15:05:20: case.submit starting 1259126.desched1
 ---------------------------------------------------
2023-08-15 15:05:20: case.submit success 1259126.desched1
 ---------------------------------------------------
2023-08-15 15:05:29: case.run starting 1259125.desched1
 ---------------------------------------------------
2023-08-15 15:05:33: model execution starting 1259125.desched1
 ---------------------------------------------------
2023-08-15 23:01:43: model execution success 1259125.desched1
 ---------------------------------------------------
2023-08-15 23:01:43: case.run success 1259125.desched1
 ---------------------------------------------------
2023-08-15 23:01:55: st_archive starting 1259126.desched1
 ---------------------------------------------------
2023-08-15 23:02:20: st_archive success 1259126.desched1
 ---------------------------------------------------
2023-08-15 23:02:20: case.submit starting 1259447.desched1
 ---------------------------------------------------
2023-08-15 23:02:20: case.submit success 1259447.desched1
 ---------------------------------------------------
2023-08-15 23:02:30: case.run starting 1259446.desched1
 ---------------------------------------------------
2023-08-15 23:02:33: model execution starting 1259446.desched1
 ---------------------------------------------------
2023-08-16 06:51:30: model execution success 1259446.desched1
 ---------------------------------------------------
2023-08-16 06:51:30: case.run success 1259446.desched1
 ---------------------------------------------------
2023-08-16 06:51:42: st_archive starting 1259447.desched1
 ---------------------------------------------------
2023-08-16 06:52:09: st_archive success 1259447.desched1
 ---------------------------------------------------
2023-08-16 06:52:10: case.submit starting 1259564.desched1
 ---------------------------------------------------
2023-08-16 06:52:10: case.submit success 1259564.desched1
 ---------------------------------------------------
2023-08-16 06:52:20: case.run starting 1259563.desched1
 ---------------------------------------------------
2023-08-16 06:52:24: model execution starting 1259563.desched1
 ---------------------------------------------------
2023-08-16 14:45:39: model execution success 1259563.desched1
 ---------------------------------------------------
2023-08-16 14:45:39: case.run success 1259563.desched1
 ---------------------------------------------------
2023-08-16 14:45:51: st_archive starting 1259564.desched1
 ---------------------------------------------------
2023-08-16 14:46:19: st_archive success 1259564.desched1
 ---------------------------------------------------
2023-08-16 14:46:20: case.submit starting 1260072.desched1
 ---------------------------------------------------
2023-08-16 14:46:20: case.submit success 1260072.desched1
 ---------------------------------------------------
2023-08-16 14:46:29: case.run starting 1260071.desched1
 ---------------------------------------------------
2023-08-16 14:46:33: model execution starting 1260071.desched1
 ---------------------------------------------------
