2024-05-30 16:19:31: case.setup starting 
 ---------------------------------------------------
2024-05-30 16:19:34: case.setup success 
 ---------------------------------------------------
2024-05-30 16:22:07: case.build starting 
 ---------------------------------------------------
2024-05-30 16:31:58: case.build success 
 ---------------------------------------------------
2024-05-30 16:42:40: xmlchange success <command> ./xmlchange PROJECT=CESM0023,RESUBMIT=10,STOP_N=2,STOP_OPTION=nyears  </command>
 ---------------------------------------------------
2024-05-30 16:42:40: xmlchange success <command> ./xmlchange CHARGE_ACCOUNT=CESM0023  </command>
 ---------------------------------------------------
2024-05-30 16:42:41: xmlchange success <command> ./xmlchange REST_OPTION=nyears,REST_N=1  </command>
 ---------------------------------------------------
2024-05-30 16:42:41: xmlchange success <command> ./xmlchange JOB_WALLCLOCK_TIME=12:00:00 --subgroup case.run  </command>
 ---------------------------------------------------
2024-05-30 16:42:49: case.submit starting 4656526.desched1
 ---------------------------------------------------
2024-05-30 16:42:49: case.submit success 4656526.desched1
 ---------------------------------------------------
2024-05-30 16:46:43: case.run starting 4656525.desched1
 ---------------------------------------------------
2024-05-30 16:46:50: model execution starting 4656525.desched1
 ---------------------------------------------------
2024-05-30 16:47:49: model execution success 4656525.desched1
 ---------------------------------------------------
2024-05-30 16:47:49: case.run error 
ERROR: Model did not complete - see /glade/derecho/scratch/hannay/b.e23_alpha17f.BLT1850.ne30_g17.POP.096/run/med.log.4656525.desched1.240530-164643 
 
 ---------------------------------------------------
2024-05-31 12:50:19: case.setup starting 
 ---------------------------------------------------
2024-05-31 12:50:20: build.clean starting 
 ---------------------------------------------------
2024-05-31 12:50:22: build.clean success 
 ---------------------------------------------------
2024-05-31 12:50:23: case.setup success 
 ---------------------------------------------------
2024-05-31 12:50:31: build.clean starting 
 ---------------------------------------------------
2024-05-31 12:50:41: build.clean success 
 ---------------------------------------------------
2024-05-31 12:53:43: case.build starting 
 ---------------------------------------------------
2024-05-31 13:03:13: case.build success 
 ---------------------------------------------------
2024-05-31 13:03:16: xmlchange success <command> ./xmlchange PROJECT=CESM0023,RESUBMIT=10,STOP_N=2,STOP_OPTION=nyears  </command>
 ---------------------------------------------------
2024-05-31 13:03:17: xmlchange success <command> ./xmlchange CHARGE_ACCOUNT=CESM0023  </command>
 ---------------------------------------------------
2024-05-31 13:03:17: xmlchange success <command> ./xmlchange REST_OPTION=nyears,REST_N=1  </command>
 ---------------------------------------------------
2024-05-31 13:03:18: xmlchange success <command> ./xmlchange JOB_WALLCLOCK_TIME=12:00:00 --subgroup case.run  </command>
 ---------------------------------------------------
2024-05-31 13:03:30: case.submit starting 4668484.desched1
 ---------------------------------------------------
2024-05-31 13:03:30: case.submit success 4668484.desched1
 ---------------------------------------------------
2024-05-31 13:06:41: case.run starting 4668483.desched1
 ---------------------------------------------------
2024-05-31 13:06:47: model execution starting 4668483.desched1
 ---------------------------------------------------
2024-05-31 17:28:50: model execution success 4668483.desched1
 ---------------------------------------------------
2024-05-31 17:28:50: case.run success 4668483.desched1
 ---------------------------------------------------
2024-05-31 17:29:08: st_archive starting 4668484.desched1
 ---------------------------------------------------
2024-05-31 17:30:44: st_archive success 4668484.desched1
 ---------------------------------------------------
2024-05-31 17:30:44: case.submit starting 4670731.desched1
 ---------------------------------------------------
2024-05-31 17:30:44: case.submit success 4670731.desched1
 ---------------------------------------------------
2024-05-31 17:31:06: case.run starting 4670730.desched1
 ---------------------------------------------------
2024-05-31 17:31:12: model execution starting 4670730.desched1
 ---------------------------------------------------
2024-06-01 10:02:54: case.submit starting 4673039.desched1
 ---------------------------------------------------
2024-06-01 10:02:54: case.submit success 4673039.desched1
 ---------------------------------------------------
2024-06-01 11:37:59: case.run starting 4673038.desched1
 ---------------------------------------------------
2024-06-01 11:38:06: model execution starting 4673038.desched1
 ---------------------------------------------------
2024-06-01 16:01:08: model execution success 4673038.desched1
 ---------------------------------------------------
2024-06-01 16:01:08: case.run success 4673038.desched1
 ---------------------------------------------------
2024-06-01 16:02:14: st_archive starting 4673039.desched1
 ---------------------------------------------------
2024-06-01 16:02:48: st_archive success 4673039.desched1
 ---------------------------------------------------
2024-06-01 16:02:48: case.submit starting 4676695.desched1
 ---------------------------------------------------
2024-06-01 16:02:48: case.submit success 4676695.desched1
 ---------------------------------------------------
2024-06-01 16:03:34: case.run starting 4676694.desched1
 ---------------------------------------------------
2024-06-01 16:03:46: model execution starting 4676694.desched1
 ---------------------------------------------------
2024-06-01 20:27:52: model execution success 4676694.desched1
 ---------------------------------------------------
2024-06-01 20:27:52: case.run success 4676694.desched1
 ---------------------------------------------------
2024-06-01 20:28:11: st_archive starting 4676695.desched1
 ---------------------------------------------------
2024-06-01 20:28:45: st_archive success 4676695.desched1
 ---------------------------------------------------
2024-06-01 20:28:46: case.submit starting 4683089.desched1
 ---------------------------------------------------
2024-06-01 20:28:46: case.submit success 4683089.desched1
 ---------------------------------------------------
2024-06-01 20:29:10: case.run starting 4683088.desched1
 ---------------------------------------------------
2024-06-01 20:29:19: model execution starting 4683088.desched1
 ---------------------------------------------------
2024-06-02 00:52:11: model execution success 4683088.desched1
 ---------------------------------------------------
2024-06-02 00:52:11: case.run success 4683088.desched1
 ---------------------------------------------------
2024-06-02 00:52:28: st_archive starting 4683089.desched1
 ---------------------------------------------------
2024-06-02 00:53:05: st_archive success 4683089.desched1
 ---------------------------------------------------
2024-06-02 00:53:05: case.submit starting 4687430.desched1
 ---------------------------------------------------
2024-06-02 00:53:05: case.submit success 4687430.desched1
 ---------------------------------------------------
2024-06-02 00:53:24: case.run starting 4687429.desched1
 ---------------------------------------------------
2024-06-02 00:53:34: model execution starting 4687429.desched1
 ---------------------------------------------------
2024-06-02 05:17:23: model execution success 4687429.desched1
 ---------------------------------------------------
2024-06-02 05:17:23: case.run success 4687429.desched1
 ---------------------------------------------------
2024-06-02 05:17:38: st_archive starting 4687430.desched1
 ---------------------------------------------------
2024-06-02 05:18:17: st_archive success 4687430.desched1
 ---------------------------------------------------
2024-06-02 05:18:18: case.submit starting 4687847.desched1
 ---------------------------------------------------
2024-06-02 05:18:18: case.submit success 4687847.desched1
 ---------------------------------------------------
2024-06-02 05:18:35: case.run starting 4687846.desched1
 ---------------------------------------------------
2024-06-02 05:18:44: model execution starting 4687846.desched1
 ---------------------------------------------------
2024-06-02 09:42:25: model execution success 4687846.desched1
 ---------------------------------------------------
2024-06-02 09:42:25: case.run success 4687846.desched1
 ---------------------------------------------------
2024-06-02 09:42:43: st_archive starting 4687847.desched1
 ---------------------------------------------------
2024-06-02 09:43:19: st_archive success 4687847.desched1
 ---------------------------------------------------
2024-06-02 09:43:20: case.submit starting 4688305.desched1
 ---------------------------------------------------
2024-06-02 09:43:20: case.submit success 4688305.desched1
 ---------------------------------------------------
2024-06-02 09:43:36: case.run starting 4688304.desched1
 ---------------------------------------------------
2024-06-02 09:43:41: model execution starting 4688304.desched1
 ---------------------------------------------------
2024-06-02 14:06:59: model execution success 4688304.desched1
 ---------------------------------------------------
2024-06-02 14:06:59: case.run success 4688304.desched1
 ---------------------------------------------------
2024-06-02 14:09:21: st_archive starting 4688305.desched1
 ---------------------------------------------------
2024-06-02 14:09:58: st_archive success 4688305.desched1
 ---------------------------------------------------
2024-06-02 14:09:58: case.submit starting 4688997.desched1
 ---------------------------------------------------
2024-06-02 14:09:58: case.submit success 4688997.desched1
 ---------------------------------------------------
2024-06-02 14:10:23: case.run starting 4688996.desched1
 ---------------------------------------------------
2024-06-02 14:10:33: model execution starting 4688996.desched1
 ---------------------------------------------------
2024-06-02 15:10:13: model execution success 4688996.desched1
 ---------------------------------------------------
2024-06-02 15:10:13: case.run error 
ERROR: Model did not complete - see /glade/derecho/scratch/hannay/b.e23_alpha17f.BLT1850.ne30_g17.POP.096/run/med.log.4688996.desched1.240602-141023 
 
 ---------------------------------------------------
2024-06-03 19:55:03: case.submit starting 4691095.desched1
 ---------------------------------------------------
2024-06-03 19:55:03: case.submit success 4691095.desched1
 ---------------------------------------------------
2024-06-03 19:55:22: case.run starting 4691094.desched1
 ---------------------------------------------------
2024-06-03 19:55:31: model execution starting 4691094.desched1
 ---------------------------------------------------
2024-06-04 00:19:50: model execution success 4691094.desched1
 ---------------------------------------------------
2024-06-04 00:19:51: case.run success 4691094.desched1
 ---------------------------------------------------
2024-06-04 00:20:10: st_archive starting 4691095.desched1
 ---------------------------------------------------
2024-06-04 00:20:45: st_archive success 4691095.desched1
 ---------------------------------------------------
2024-06-04 00:20:45: case.submit starting 4691870.desched1
 ---------------------------------------------------
2024-06-04 00:20:45: case.submit success 4691870.desched1
 ---------------------------------------------------
2024-06-04 00:21:00: case.run starting 4691869.desched1
 ---------------------------------------------------
2024-06-04 00:21:09: model execution starting 4691869.desched1
 ---------------------------------------------------
2024-06-04 04:43:10: model execution success 4691869.desched1
 ---------------------------------------------------
2024-06-04 04:43:10: case.run success 4691869.desched1
 ---------------------------------------------------
2024-06-04 04:43:24: st_archive starting 4691870.desched1
 ---------------------------------------------------
2024-06-04 04:43:54: st_archive success 4691870.desched1
 ---------------------------------------------------
2024-06-04 04:43:55: case.submit starting 4693227.desched1
 ---------------------------------------------------
2024-06-04 04:43:55: case.submit success 4693227.desched1
 ---------------------------------------------------
2024-06-04 04:44:08: case.run starting 4693226.desched1
 ---------------------------------------------------
2024-06-04 04:44:17: model execution starting 4693226.desched1
 ---------------------------------------------------
2024-06-04 09:08:26: model execution success 4693226.desched1
 ---------------------------------------------------
2024-06-04 09:08:26: case.run success 4693226.desched1
 ---------------------------------------------------
2024-06-04 09:50:27: st_archive starting 
 ---------------------------------------------------
2024-06-04 09:50:57: st_archive success 
 ---------------------------------------------------
2024-06-04 09:51:23: case.submit starting 4696451.desched1
 ---------------------------------------------------
2024-06-04 09:51:23: case.submit success 4696451.desched1
 ---------------------------------------------------
2024-06-04 09:52:40: case.run starting 4696449.desched1
 ---------------------------------------------------
2024-06-04 09:52:48: model execution starting 4696449.desched1
 ---------------------------------------------------
2024-06-04 14:14:40: model execution success 4696449.desched1
 ---------------------------------------------------
2024-06-04 14:14:40: case.run success 4696449.desched1
 ---------------------------------------------------
2024-06-04 23:22:52: st_archive starting 4696451.desched1
 ---------------------------------------------------
2024-06-04 23:23:28: st_archive success 4696451.desched1
 ---------------------------------------------------
2024-06-04 23:23:28: case.submit starting 4708628.desched1
 ---------------------------------------------------
2024-06-04 23:23:28: case.submit success 4708628.desched1
 ---------------------------------------------------
2024-06-04 23:23:48: case.run starting 4708627.desched1
 ---------------------------------------------------
2024-06-04 23:23:58: model execution starting 4708627.desched1
 ---------------------------------------------------
2024-06-05 03:51:21: model execution success 4708627.desched1
 ---------------------------------------------------
2024-06-05 03:51:21: case.run success 4708627.desched1
 ---------------------------------------------------
2024-06-05 03:51:37: st_archive starting 4708628.desched1
 ---------------------------------------------------
2024-06-05 03:52:09: st_archive success 4708628.desched1
 ---------------------------------------------------
2024-06-05 10:47:32: case.submit starting 4717938.desched1
 ---------------------------------------------------
2024-06-05 10:47:32: case.submit success 4717938.desched1
 ---------------------------------------------------
2024-06-05 11:01:07: case.run starting 4717937.desched1
 ---------------------------------------------------
2024-06-05 11:01:14: model execution starting 4717937.desched1
 ---------------------------------------------------
2024-06-05 15:24:26: model execution success 4717937.desched1
 ---------------------------------------------------
2024-06-05 15:24:26: case.run success 4717937.desched1
 ---------------------------------------------------
2024-06-05 15:32:33: st_archive starting 4717938.desched1
 ---------------------------------------------------
2024-06-05 15:33:04: st_archive success 4717938.desched1
 ---------------------------------------------------
