2023-07-07 16:10:15: xmlchange success <command> ./xmlchange --append CAM_CONFIG_OPTS=-cosp  </command>
 ---------------------------------------------------
2023-07-07 16:10:15: case.setup starting 
 ---------------------------------------------------
2023-07-07 16:10:17: case.setup success 
 ---------------------------------------------------
2023-07-07 16:10:18: xmlchange success <command> ./xmlchange RUN_STARTDATE=1995-01-01  </command>
 ---------------------------------------------------
2023-07-07 16:10:19: xmlchange success <command> ./xmlchange STOP_N=2  </command>
 ---------------------------------------------------
2023-07-07 16:10:20: xmlchange success <command> ./xmlchange STOP_OPTION=nyears  </command>
 ---------------------------------------------------
2023-07-07 16:10:21: xmlchange success <command> ./xmlchange RESUBMIT=5  </command>
 ---------------------------------------------------
2023-07-07 16:10:21: xmlchange success <command> ./xmlchange RUN_TYPE=hybrid  </command>
 ---------------------------------------------------
2023-07-07 16:10:22: xmlchange success <command> ./xmlchange RUN_REFCASE=f.cam6_3_107.FLTHIST_v0a.ne30.clm5_1.001  </command>
 ---------------------------------------------------
2023-07-07 16:10:23: xmlchange success <command> ./xmlchange RUN_REFDATE=1994-01-01  </command>
 ---------------------------------------------------
2023-07-07 16:10:24: xmlchange success <command> ./xmlchange GET_REFCASE=TRUE  </command>
 ---------------------------------------------------
2023-07-07 16:10:25: xmlchange success <command> ./xmlchange RUN_REFDIR=cesm2_init  </command>
 ---------------------------------------------------
2023-07-07 16:30:55: case.build starting 
 ---------------------------------------------------
2023-07-07 16:30:55: case.build starting 
 ---------------------------------------------------
2023-07-07 16:30:56: case.build error 
ERROR: File /glade/p/cesmdata/cseg/runs/cesm2_0/f.cam6_3_117.FLTHIST_ne30.r250_dcs250.001/env_build.xml appears to have changed without a corresponding invalidation.
 ---------------------------------------------------
2023-07-07 16:38:15: case.build starting 
 ---------------------------------------------------
2023-07-07 16:39:29: case.build error 
ERROR: File /glade/p/cesmdata/cseg/runs/cesm2_0/f.cam6_3_117.FLTHIST_ne30.r250_dcs250.001/env_run.xml appears to have changed without a corresponding invalidation.
 ---------------------------------------------------
2023-07-07 16:44:37: case.build success 
 ---------------------------------------------------
2023-07-07 16:53:47: case.build starting 
 ---------------------------------------------------
2023-07-07 16:55:12: case.build success 
 ---------------------------------------------------
2023-07-07 16:57:00: xmlchange success <command> ./xmlchange PROJECT=P93300642,JOB_QUEUE=regular,RESUBMIT=5,STOP_N=2,STOP_OPTION=nyears  </command>
 ---------------------------------------------------
2023-07-07 16:57:01: xmlchange success <command> ./xmlchange REST_OPTION=nyears,REST_N=1  </command>
 ---------------------------------------------------
2023-07-07 16:57:09: case.submit starting 1790633.chadmin1.ib0.cheyenne.ucar.edu
 ---------------------------------------------------
2023-07-07 16:57:09: case.submit success 1790633.chadmin1.ib0.cheyenne.ucar.edu
 ---------------------------------------------------
2023-07-07 17:06:17: case.run starting 1790631.chadmin1.ib0.cheyenne.ucar.edu
 ---------------------------------------------------
2023-07-07 17:06:20: model execution starting 1790631.chadmin1.ib0.cheyenne.ucar.edu
 ---------------------------------------------------
2023-07-07 18:45:19: model execution error 
ERROR: Command: 'mpiexec_mpt -p "%g:"  -np 2160  omplace -tm open64 -vv /glade/scratch/hannay/f.cam6_3_117.FLTHIST_ne30.r250_dcs250.001/bld/cesm.exe   >> cesm.log.$LID 2>&1 ' failed with error '' from dir '/glade/scratch/hannay/f.cam6_3_117.FLTHIST_ne30.r250_dcs250.001/run'
 ---------------------------------------------------
2023-07-07 18:45:19: case.run error 
ERROR: RUN FAIL: Command 'mpiexec_mpt -p "%g:"  -np 2160  omplace -tm open64 -vv /glade/scratch/hannay/f.cam6_3_117.FLTHIST_ne30.r250_dcs250.001/bld/cesm.exe   >> cesm.log.$LID 2>&1 ' failed
See log file for details: /glade/scratch/hannay/f.cam6_3_117.FLTHIST_ne30.r250_dcs250.001/run/cesm.log.1790631.chadmin1.ib0.cheyenne.ucar.edu.230707-170617
 ---------------------------------------------------
2023-07-07 19:58:39: case.submit starting 1791609.chadmin1.ib0.cheyenne.ucar.edu
 ---------------------------------------------------
2023-07-07 19:58:39: case.submit success 1791609.chadmin1.ib0.cheyenne.ucar.edu
 ---------------------------------------------------
2023-07-07 22:54:33: case.run starting 1791608.chadmin1.ib0.cheyenne.ucar.edu
 ---------------------------------------------------
2023-07-07 22:54:37: model execution starting 1791608.chadmin1.ib0.cheyenne.ucar.edu
 ---------------------------------------------------
2023-07-07 23:00:09: model execution error 
ERROR: Command: 'mpiexec_mpt -p "%g:"  -np 2160  omplace -tm open64 -vv /glade/scratch/hannay/f.cam6_3_117.FLTHIST_ne30.r250_dcs250.001/bld/cesm.exe   >> cesm.log.$LID 2>&1 ' failed with error '' from dir '/glade/scratch/hannay/f.cam6_3_117.FLTHIST_ne30.r250_dcs250.001/run'
 ---------------------------------------------------
2023-07-07 23:00:09: case.run error 
ERROR: RUN FAIL: Command 'mpiexec_mpt -p "%g:"  -np 2160  omplace -tm open64 -vv /glade/scratch/hannay/f.cam6_3_117.FLTHIST_ne30.r250_dcs250.001/bld/cesm.exe   >> cesm.log.$LID 2>&1 ' failed
See log file for details: /glade/scratch/hannay/f.cam6_3_117.FLTHIST_ne30.r250_dcs250.001/run/cesm.log.1791608.chadmin1.ib0.cheyenne.ucar.edu.230707-225433
 ---------------------------------------------------
2023-07-08 07:26:11: case.submit starting 1798839.chadmin1.ib0.cheyenne.ucar.edu
 ---------------------------------------------------
2023-07-08 07:26:11: case.submit success 1798839.chadmin1.ib0.cheyenne.ucar.edu
 ---------------------------------------------------
2023-07-08 07:33:41: case.setup starting 
 ---------------------------------------------------
2023-07-08 07:33:42: case.setup success 
 ---------------------------------------------------
2023-07-08 07:48:05: build.clean starting 
 ---------------------------------------------------
2023-07-08 07:48:11: build.clean success 
 ---------------------------------------------------
2023-07-08 07:48:20: case.build starting 
 ---------------------------------------------------
2023-07-08 07:56:30: case.run starting 1798838.chadmin1.ib0.cheyenne.ucar.edu
 ---------------------------------------------------
2023-07-08 07:56:31: case.run error 
ERROR: BUILD_COMPLETE is not true
Please rebuild the model interactively
 ---------------------------------------------------
2023-07-08 08:02:45: case.build success 
 ---------------------------------------------------
2023-07-08 08:04:38: case.submit starting 1799020.chadmin1.ib0.cheyenne.ucar.edu
 ---------------------------------------------------
2023-07-08 08:04:38: case.submit success 1799020.chadmin1.ib0.cheyenne.ucar.edu
 ---------------------------------------------------
2023-07-08 08:12:03: case.run starting 1799019.chadmin1.ib0.cheyenne.ucar.edu
 ---------------------------------------------------
2023-07-08 08:12:07: model execution starting 1799019.chadmin1.ib0.cheyenne.ucar.edu
 ---------------------------------------------------
2023-07-08 14:06:45: case.submit starting 1802932.chadmin1.ib0.cheyenne.ucar.edu
 ---------------------------------------------------
2023-07-08 14:06:45: case.submit success 1802932.chadmin1.ib0.cheyenne.ucar.edu
 ---------------------------------------------------
2023-07-08 15:02:53: case.run starting 1802931.chadmin1.ib0.cheyenne.ucar.edu
 ---------------------------------------------------
2023-07-08 15:02:56: model execution starting 1802931.chadmin1.ib0.cheyenne.ucar.edu
 ---------------------------------------------------
2023-07-08 22:07:16: model execution error 
ERROR: Command: 'mpiexec_mpt -p "%g:"  -np 2160  omplace -tm open64 -vv /glade/scratch/hannay/f.cam6_3_117.FLTHIST_ne30.r250_dcs250.001/bld/cesm.exe   >> cesm.log.$LID 2>&1 ' failed with error '' from dir '/glade/scratch/hannay/f.cam6_3_117.FLTHIST_ne30.r250_dcs250.001/run'
 ---------------------------------------------------
2023-07-08 22:07:16: case.run error 
ERROR: RUN FAIL: Command 'mpiexec_mpt -p "%g:"  -np 2160  omplace -tm open64 -vv /glade/scratch/hannay/f.cam6_3_117.FLTHIST_ne30.r250_dcs250.001/bld/cesm.exe   >> cesm.log.$LID 2>&1 ' failed
See log file for details: /glade/scratch/hannay/f.cam6_3_117.FLTHIST_ne30.r250_dcs250.001/run/cesm.log.1802931.chadmin1.ib0.cheyenne.ucar.edu.230708-150253
 ---------------------------------------------------
2023-07-09 10:45:10: xmlchange success <command> ./xmlchange PROJECT=P93300642,JOB_QUEUE=regular,RESUBMIT=10,STOP_N=1,STOP_OPTION=nyears  </command>
 ---------------------------------------------------
2023-07-09 10:45:11: xmlchange success <command> ./xmlchange REST_OPTION=nmonths,REST_N=3  </command>
 ---------------------------------------------------
2023-07-09 10:45:16: case.submit starting 1812907.chadmin1.ib0.cheyenne.ucar.edu
 ---------------------------------------------------
2023-07-09 10:45:16: case.submit success 1812907.chadmin1.ib0.cheyenne.ucar.edu
 ---------------------------------------------------
2023-07-09 10:45:21: case.run starting 1812906.chadmin1.ib0.cheyenne.ucar.edu
 ---------------------------------------------------
2023-07-09 10:45:25: model execution starting 1812906.chadmin1.ib0.cheyenne.ucar.edu
 ---------------------------------------------------
2023-07-09 15:36:50: model execution error 
ERROR: Command: 'mpiexec_mpt -p "%g:"  -np 2160  omplace -tm open64 -vv /glade/scratch/hannay/f.cam6_3_117.FLTHIST_ne30.r250_dcs250.001/bld/cesm.exe   >> cesm.log.$LID 2>&1 ' failed with error '' from dir '/glade/scratch/hannay/f.cam6_3_117.FLTHIST_ne30.r250_dcs250.001/run'
 ---------------------------------------------------
2023-07-09 15:36:50: case.run error 
ERROR: RUN FAIL: Command 'mpiexec_mpt -p "%g:"  -np 2160  omplace -tm open64 -vv /glade/scratch/hannay/f.cam6_3_117.FLTHIST_ne30.r250_dcs250.001/bld/cesm.exe   >> cesm.log.$LID 2>&1 ' failed
See log file for details: /glade/scratch/hannay/f.cam6_3_117.FLTHIST_ne30.r250_dcs250.001/run/cesm.log.1812906.chadmin1.ib0.cheyenne.ucar.edu.230709-104521
 ---------------------------------------------------
2023-07-09 16:00:17: xmlchange success <command> ./xmlchange PROJECT=P93300642,JOB_QUEUE=regular,RESUBMIT=25,STOP_N=3,STOP_OPTION=nmonths  </command>
 ---------------------------------------------------
2023-07-09 16:00:18: xmlchange success <command> ./xmlchange REST_OPTION=nmonths,REST_N=3  </command>
 ---------------------------------------------------
2023-07-09 16:00:18: xmlchange success <command> ./xmlchange CONTINUE_RUN=TRUE  </command>
 ---------------------------------------------------
2023-07-09 16:00:48: case.submit starting 1824952.chadmin1.ib0.cheyenne.ucar.edu
 ---------------------------------------------------
2023-07-09 16:00:48: case.submit success 1824952.chadmin1.ib0.cheyenne.ucar.edu
 ---------------------------------------------------
2023-07-09 16:00:53: case.run starting 1824947.chadmin1.ib0.cheyenne.ucar.edu
 ---------------------------------------------------
2023-07-09 16:00:57: model execution starting 1824947.chadmin1.ib0.cheyenne.ucar.edu
 ---------------------------------------------------
2023-07-09 17:35:45: model execution success 1824947.chadmin1.ib0.cheyenne.ucar.edu
 ---------------------------------------------------
2023-07-09 17:35:45: case.run success 1824947.chadmin1.ib0.cheyenne.ucar.edu
 ---------------------------------------------------
2023-07-09 17:35:52: st_archive starting 1824952.chadmin1.ib0.cheyenne.ucar.edu
 ---------------------------------------------------
2023-07-09 17:36:02: st_archive success 1824952.chadmin1.ib0.cheyenne.ucar.edu
 ---------------------------------------------------
2023-07-09 17:36:36: case.submit starting 1831132.chadmin1.ib0.cheyenne.ucar.edu
 ---------------------------------------------------
2023-07-09 17:36:36: case.submit success 1831132.chadmin1.ib0.cheyenne.ucar.edu
 ---------------------------------------------------
2023-07-09 17:36:41: case.run starting 1831124.chadmin1.ib0.cheyenne.ucar.edu
 ---------------------------------------------------
2023-07-09 17:36:44: model execution starting 1831124.chadmin1.ib0.cheyenne.ucar.edu
 ---------------------------------------------------
2023-07-09 19:09:06: model execution success 1831124.chadmin1.ib0.cheyenne.ucar.edu
 ---------------------------------------------------
2023-07-09 19:09:06: case.run success 1831124.chadmin1.ib0.cheyenne.ucar.edu
 ---------------------------------------------------
2023-07-09 19:09:15: st_archive starting 1831132.chadmin1.ib0.cheyenne.ucar.edu
 ---------------------------------------------------
2023-07-09 19:09:24: st_archive success 1831132.chadmin1.ib0.cheyenne.ucar.edu
 ---------------------------------------------------
2023-07-09 19:09:28: case.submit starting 1837996.chadmin1.ib0.cheyenne.ucar.edu
 ---------------------------------------------------
2023-07-09 19:09:28: case.submit success 1837996.chadmin1.ib0.cheyenne.ucar.edu
 ---------------------------------------------------
2023-07-09 19:09:32: case.run starting 1837995.chadmin1.ib0.cheyenne.ucar.edu
 ---------------------------------------------------
2023-07-09 19:09:35: model execution starting 1837995.chadmin1.ib0.cheyenne.ucar.edu
 ---------------------------------------------------
2023-07-09 20:42:35: model execution success 1837995.chadmin1.ib0.cheyenne.ucar.edu
 ---------------------------------------------------
2023-07-09 20:42:35: case.run success 1837995.chadmin1.ib0.cheyenne.ucar.edu
 ---------------------------------------------------
2023-07-09 20:42:41: st_archive starting 1837996.chadmin1.ib0.cheyenne.ucar.edu
 ---------------------------------------------------
2023-07-09 20:42:50: st_archive success 1837996.chadmin1.ib0.cheyenne.ucar.edu
 ---------------------------------------------------
2023-07-09 20:42:51: case.submit starting 1844335.chadmin1.ib0.cheyenne.ucar.edu
 ---------------------------------------------------
2023-07-09 20:42:51: case.submit success 1844335.chadmin1.ib0.cheyenne.ucar.edu
 ---------------------------------------------------
2023-07-09 20:43:01: case.run starting 1844334.chadmin1.ib0.cheyenne.ucar.edu
 ---------------------------------------------------
2023-07-09 20:43:04: model execution starting 1844334.chadmin1.ib0.cheyenne.ucar.edu
 ---------------------------------------------------
2023-07-09 22:17:44: model execution success 1844334.chadmin1.ib0.cheyenne.ucar.edu
 ---------------------------------------------------
2023-07-09 22:17:44: case.run success 1844334.chadmin1.ib0.cheyenne.ucar.edu
 ---------------------------------------------------
2023-07-09 22:17:52: st_archive starting 1844335.chadmin1.ib0.cheyenne.ucar.edu
 ---------------------------------------------------
2023-07-09 22:18:01: st_archive success 1844335.chadmin1.ib0.cheyenne.ucar.edu
 ---------------------------------------------------
2023-07-09 22:18:02: case.submit starting 1852534.chadmin1.ib0.cheyenne.ucar.edu
 ---------------------------------------------------
2023-07-09 22:18:02: case.submit success 1852534.chadmin1.ib0.cheyenne.ucar.edu
 ---------------------------------------------------
2023-07-09 22:18:14: case.run starting 1852533.chadmin1.ib0.cheyenne.ucar.edu
 ---------------------------------------------------
2023-07-09 22:18:18: model execution starting 1852533.chadmin1.ib0.cheyenne.ucar.edu
 ---------------------------------------------------
2023-07-09 23:52:23: model execution success 1852533.chadmin1.ib0.cheyenne.ucar.edu
 ---------------------------------------------------
2023-07-09 23:52:23: case.run success 1852533.chadmin1.ib0.cheyenne.ucar.edu
 ---------------------------------------------------
2023-07-09 23:52:32: st_archive starting 1852534.chadmin1.ib0.cheyenne.ucar.edu
 ---------------------------------------------------
2023-07-09 23:52:44: st_archive success 1852534.chadmin1.ib0.cheyenne.ucar.edu
 ---------------------------------------------------
2023-07-09 23:52:44: case.submit starting 1859624.chadmin1.ib0.cheyenne.ucar.edu
 ---------------------------------------------------
2023-07-09 23:52:44: case.submit success 1859624.chadmin1.ib0.cheyenne.ucar.edu
 ---------------------------------------------------
2023-07-09 23:52:50: case.run starting 1859623.chadmin1.ib0.cheyenne.ucar.edu
 ---------------------------------------------------
2023-07-09 23:52:54: model execution starting 1859623.chadmin1.ib0.cheyenne.ucar.edu
 ---------------------------------------------------
2023-07-10 01:24:53: model execution success 1859623.chadmin1.ib0.cheyenne.ucar.edu
 ---------------------------------------------------
2023-07-10 01:24:53: case.run success 1859623.chadmin1.ib0.cheyenne.ucar.edu
 ---------------------------------------------------
2023-07-10 01:25:01: st_archive starting 1859624.chadmin1.ib0.cheyenne.ucar.edu
 ---------------------------------------------------
2023-07-10 01:25:10: st_archive success 1859624.chadmin1.ib0.cheyenne.ucar.edu
 ---------------------------------------------------
2023-07-10 01:25:36: case.submit starting 1862189.chadmin1.ib0.cheyenne.ucar.edu
 ---------------------------------------------------
2023-07-10 01:25:36: case.submit success 1862189.chadmin1.ib0.cheyenne.ucar.edu
 ---------------------------------------------------
2023-07-10 01:25:40: case.run starting 1862188.chadmin1.ib0.cheyenne.ucar.edu
 ---------------------------------------------------
2023-07-10 01:25:43: model execution starting 1862188.chadmin1.ib0.cheyenne.ucar.edu
 ---------------------------------------------------
2023-07-10 02:58:41: model execution success 1862188.chadmin1.ib0.cheyenne.ucar.edu
 ---------------------------------------------------
2023-07-10 02:58:41: case.run success 1862188.chadmin1.ib0.cheyenne.ucar.edu
 ---------------------------------------------------
2023-07-10 02:58:52: st_archive starting 1862189.chadmin1.ib0.cheyenne.ucar.edu
 ---------------------------------------------------
2023-07-10 02:59:03: st_archive success 1862189.chadmin1.ib0.cheyenne.ucar.edu
 ---------------------------------------------------
2023-07-10 02:59:08: case.submit starting 1862442.chadmin1.ib0.cheyenne.ucar.edu
 ---------------------------------------------------
2023-07-10 02:59:08: case.submit success 1862442.chadmin1.ib0.cheyenne.ucar.edu
 ---------------------------------------------------
2023-07-10 02:59:13: case.run starting 1862441.chadmin1.ib0.cheyenne.ucar.edu
 ---------------------------------------------------
2023-07-10 02:59:17: model execution starting 1862441.chadmin1.ib0.cheyenne.ucar.edu
 ---------------------------------------------------
2023-07-10 04:33:34: model execution success 1862441.chadmin1.ib0.cheyenne.ucar.edu
 ---------------------------------------------------
2023-07-10 04:33:34: case.run success 1862441.chadmin1.ib0.cheyenne.ucar.edu
 ---------------------------------------------------
2023-07-10 04:33:43: st_archive starting 1862442.chadmin1.ib0.cheyenne.ucar.edu
 ---------------------------------------------------
2023-07-10 04:33:55: st_archive success 1862442.chadmin1.ib0.cheyenne.ucar.edu
 ---------------------------------------------------
2023-07-10 04:33:59: case.submit starting 1862669.chadmin1.ib0.cheyenne.ucar.edu
 ---------------------------------------------------
2023-07-10 04:33:59: case.submit success 1862669.chadmin1.ib0.cheyenne.ucar.edu
 ---------------------------------------------------
2023-07-10 04:34:04: case.run starting 1862668.chadmin1.ib0.cheyenne.ucar.edu
 ---------------------------------------------------
2023-07-10 04:34:07: model execution starting 1862668.chadmin1.ib0.cheyenne.ucar.edu
 ---------------------------------------------------
2023-07-10 06:08:05: model execution success 1862668.chadmin1.ib0.cheyenne.ucar.edu
 ---------------------------------------------------
2023-07-10 06:08:05: case.run success 1862668.chadmin1.ib0.cheyenne.ucar.edu
 ---------------------------------------------------
2023-07-10 06:08:12: st_archive starting 1862669.chadmin1.ib0.cheyenne.ucar.edu
 ---------------------------------------------------
2023-07-10 06:08:22: st_archive success 1862669.chadmin1.ib0.cheyenne.ucar.edu
 ---------------------------------------------------
2023-07-10 06:08:22: case.submit starting 1862901.chadmin1.ib0.cheyenne.ucar.edu
 ---------------------------------------------------
2023-07-10 06:08:22: case.submit success 1862901.chadmin1.ib0.cheyenne.ucar.edu
 ---------------------------------------------------
2023-07-10 06:08:30: case.run starting 1862900.chadmin1.ib0.cheyenne.ucar.edu
 ---------------------------------------------------
2023-07-10 06:08:33: model execution starting 1862900.chadmin1.ib0.cheyenne.ucar.edu
 ---------------------------------------------------
2023-07-10 07:43:50: model execution success 1862900.chadmin1.ib0.cheyenne.ucar.edu
 ---------------------------------------------------
2023-07-10 07:43:50: case.run success 1862900.chadmin1.ib0.cheyenne.ucar.edu
 ---------------------------------------------------
2023-07-10 07:43:56: st_archive starting 1862901.chadmin1.ib0.cheyenne.ucar.edu
 ---------------------------------------------------
2023-07-10 07:44:04: st_archive success 1862901.chadmin1.ib0.cheyenne.ucar.edu
 ---------------------------------------------------
2023-07-10 07:44:08: case.submit starting 1863127.chadmin1.ib0.cheyenne.ucar.edu
 ---------------------------------------------------
2023-07-10 07:44:08: case.submit success 1863127.chadmin1.ib0.cheyenne.ucar.edu
 ---------------------------------------------------
2023-07-10 07:44:13: case.run starting 1863126.chadmin1.ib0.cheyenne.ucar.edu
 ---------------------------------------------------
2023-07-10 07:44:16: model execution starting 1863126.chadmin1.ib0.cheyenne.ucar.edu
 ---------------------------------------------------
2023-07-10 09:19:41: model execution success 1863126.chadmin1.ib0.cheyenne.ucar.edu
 ---------------------------------------------------
2023-07-10 09:19:41: case.run success 1863126.chadmin1.ib0.cheyenne.ucar.edu
 ---------------------------------------------------
2023-07-10 09:20:08: st_archive starting 1863127.chadmin1.ib0.cheyenne.ucar.edu
 ---------------------------------------------------
2023-07-10 09:20:17: st_archive success 1863127.chadmin1.ib0.cheyenne.ucar.edu
 ---------------------------------------------------
2023-07-10 09:20:19: case.submit starting 1863672.chadmin1.ib0.cheyenne.ucar.edu
 ---------------------------------------------------
2023-07-10 09:20:19: case.submit success 1863672.chadmin1.ib0.cheyenne.ucar.edu
 ---------------------------------------------------
2023-07-10 11:08:53: case.run starting 1863671.chadmin1.ib0.cheyenne.ucar.edu
 ---------------------------------------------------
2023-07-10 11:08:57: model execution starting 1863671.chadmin1.ib0.cheyenne.ucar.edu
 ---------------------------------------------------
2023-07-10 12:45:22: model execution success 1863671.chadmin1.ib0.cheyenne.ucar.edu
 ---------------------------------------------------
2023-07-10 12:45:22: case.run success 1863671.chadmin1.ib0.cheyenne.ucar.edu
 ---------------------------------------------------
2023-07-10 12:45:47: st_archive starting 1863672.chadmin1.ib0.cheyenne.ucar.edu
 ---------------------------------------------------
2023-07-10 12:45:56: st_archive success 1863672.chadmin1.ib0.cheyenne.ucar.edu
 ---------------------------------------------------
2023-07-10 12:45:59: case.submit starting 1866986.chadmin1.ib0.cheyenne.ucar.edu
 ---------------------------------------------------
2023-07-10 12:45:59: case.submit success 1866986.chadmin1.ib0.cheyenne.ucar.edu
 ---------------------------------------------------
2023-07-10 12:57:07: case.run starting 1866985.chadmin1.ib0.cheyenne.ucar.edu
 ---------------------------------------------------
2023-07-10 12:57:10: model execution starting 1866985.chadmin1.ib0.cheyenne.ucar.edu
 ---------------------------------------------------
2023-07-10 14:31:47: model execution success 1866985.chadmin1.ib0.cheyenne.ucar.edu
 ---------------------------------------------------
2023-07-10 14:31:47: case.run success 1866985.chadmin1.ib0.cheyenne.ucar.edu
 ---------------------------------------------------
2023-07-10 14:32:04: st_archive starting 1866986.chadmin1.ib0.cheyenne.ucar.edu
 ---------------------------------------------------
2023-07-10 14:32:14: st_archive success 1866986.chadmin1.ib0.cheyenne.ucar.edu
 ---------------------------------------------------
2023-07-10 14:32:19: case.submit starting 1868820.chadmin1.ib0.cheyenne.ucar.edu
 ---------------------------------------------------
2023-07-10 14:32:19: case.submit success 1868820.chadmin1.ib0.cheyenne.ucar.edu
 ---------------------------------------------------
2023-07-10 14:33:57: case.run starting 1868819.chadmin1.ib0.cheyenne.ucar.edu
 ---------------------------------------------------
2023-07-10 14:34:01: model execution starting 1868819.chadmin1.ib0.cheyenne.ucar.edu
 ---------------------------------------------------
2023-07-10 16:04:12: model execution success 1868819.chadmin1.ib0.cheyenne.ucar.edu
 ---------------------------------------------------
2023-07-10 16:04:12: case.run success 1868819.chadmin1.ib0.cheyenne.ucar.edu
 ---------------------------------------------------
2023-07-10 16:04:26: st_archive starting 1868820.chadmin1.ib0.cheyenne.ucar.edu
 ---------------------------------------------------
2023-07-10 16:04:36: st_archive success 1868820.chadmin1.ib0.cheyenne.ucar.edu
 ---------------------------------------------------
2023-07-10 16:04:37: case.submit starting 1871250.chadmin1.ib0.cheyenne.ucar.edu
 ---------------------------------------------------
2023-07-10 16:04:37: case.submit success 1871250.chadmin1.ib0.cheyenne.ucar.edu
 ---------------------------------------------------
2023-07-10 16:43:55: case.run starting 1871249.chadmin1.ib0.cheyenne.ucar.edu
 ---------------------------------------------------
2023-07-10 16:43:59: model execution starting 1871249.chadmin1.ib0.cheyenne.ucar.edu
 ---------------------------------------------------
2023-07-10 18:19:03: model execution success 1871249.chadmin1.ib0.cheyenne.ucar.edu
 ---------------------------------------------------
2023-07-10 18:19:03: case.run success 1871249.chadmin1.ib0.cheyenne.ucar.edu
 ---------------------------------------------------
2023-07-10 18:19:22: st_archive starting 1871250.chadmin1.ib0.cheyenne.ucar.edu
 ---------------------------------------------------
2023-07-10 18:19:31: st_archive success 1871250.chadmin1.ib0.cheyenne.ucar.edu
 ---------------------------------------------------
2023-07-10 18:19:31: case.submit starting 1876607.chadmin1.ib0.cheyenne.ucar.edu
 ---------------------------------------------------
2023-07-10 18:19:31: case.submit success 1876607.chadmin1.ib0.cheyenne.ucar.edu
 ---------------------------------------------------
2023-07-10 18:22:41: case.run starting 1876606.chadmin1.ib0.cheyenne.ucar.edu
 ---------------------------------------------------
2023-07-10 18:22:45: model execution starting 1876606.chadmin1.ib0.cheyenne.ucar.edu
 ---------------------------------------------------
2023-07-10 19:57:30: model execution success 1876606.chadmin1.ib0.cheyenne.ucar.edu
 ---------------------------------------------------
2023-07-10 19:57:30: case.run success 1876606.chadmin1.ib0.cheyenne.ucar.edu
 ---------------------------------------------------
2023-07-10 19:57:44: st_archive starting 1876607.chadmin1.ib0.cheyenne.ucar.edu
 ---------------------------------------------------
2023-07-10 19:57:53: st_archive success 1876607.chadmin1.ib0.cheyenne.ucar.edu
 ---------------------------------------------------
2023-07-10 19:57:58: case.submit starting 1883302.chadmin1.ib0.cheyenne.ucar.edu
 ---------------------------------------------------
2023-07-10 19:57:58: case.submit success 1883302.chadmin1.ib0.cheyenne.ucar.edu
 ---------------------------------------------------
2023-07-10 20:32:24: case.run starting 1883301.chadmin1.ib0.cheyenne.ucar.edu
 ---------------------------------------------------
2023-07-10 20:32:28: model execution starting 1883301.chadmin1.ib0.cheyenne.ucar.edu
 ---------------------------------------------------
2023-07-10 22:08:01: model execution success 1883301.chadmin1.ib0.cheyenne.ucar.edu
 ---------------------------------------------------
2023-07-10 22:08:01: case.run success 1883301.chadmin1.ib0.cheyenne.ucar.edu
 ---------------------------------------------------
2023-07-10 22:08:10: st_archive starting 1883302.chadmin1.ib0.cheyenne.ucar.edu
 ---------------------------------------------------
2023-07-10 22:08:19: st_archive success 1883302.chadmin1.ib0.cheyenne.ucar.edu
 ---------------------------------------------------
2023-07-10 22:08:43: case.submit starting 1892430.chadmin1.ib0.cheyenne.ucar.edu
 ---------------------------------------------------
2023-07-10 22:08:43: case.submit success 1892430.chadmin1.ib0.cheyenne.ucar.edu
 ---------------------------------------------------
2023-07-10 22:08:49: case.run starting 1892421.chadmin1.ib0.cheyenne.ucar.edu
 ---------------------------------------------------
2023-07-10 22:08:52: model execution starting 1892421.chadmin1.ib0.cheyenne.ucar.edu
 ---------------------------------------------------
2023-07-10 22:26:25: model execution error 