2021-11-24 16:39:49: xmlchange success <command> ./xmlchange CAM_CONFIG_OPTS= -pcols 9 --append  </command>
 ---------------------------------------------------
2021-11-24 16:39:49: xmlchange success <command> ./xmlchange CAM_CONFIG_OPTS=-phys cam6 -age_of_air_trcs -chem waccm_sc_mam4 -cppdefs -Dwaccm_debug -nlev 58  </command>
 ---------------------------------------------------
2021-11-24 16:39:49: case.setup starting 
 ---------------------------------------------------
2021-11-24 16:39:51: case.setup success 
 ---------------------------------------------------
2021-11-24 16:39:51: xmlchange success <command> ./xmlchange RUN_STARTDATE=1979-01-01  </command>
 ---------------------------------------------------
2021-11-24 16:39:52: xmlchange success <command> ./xmlchange STOP_N=2  </command>
 ---------------------------------------------------
2021-11-24 16:39:52: xmlchange success <command> ./xmlchange STOP_OPTION=nyears  </command>
 ---------------------------------------------------
2021-11-24 16:39:52: xmlchange success <command> ./xmlchange RESUBMIT=5  </command>
 ---------------------------------------------------
2021-11-24 16:39:52: xmlchange success <command> ./xmlchange RUN_TYPE=hybrid  </command>
 ---------------------------------------------------
2021-11-24 16:39:53: xmlchange success <command> ./xmlchange RUN_REFCASE=f.e21.FWscHIST_BGC.ne30_ne30_mg17_L48_revert-J.001  </command>
 ---------------------------------------------------
2021-11-24 16:39:53: xmlchange success <command> ./xmlchange RUN_REFDATE=1989-01-01  </command>
 ---------------------------------------------------
2021-11-24 16:39:53: xmlchange success <command> ./xmlchange GET_REFCASE=TRUE  </command>
 ---------------------------------------------------
2021-11-24 16:40:07: case.build starting 
 ---------------------------------------------------
2021-11-24 16:43:08: case.build starting 
 ---------------------------------------------------
2021-11-24 16:51:10: case.build error 
ERROR: BUILD FAIL: cam.buildlib failed, cat /glade/scratch/hannay/f.e21.FWscHIST.ne30_L48_BL10_cam6_3_019_plus_CESM2.2.001_zm2_PPM.hf/bld/atm.bldlog.211124-164308
 ---------------------------------------------------
2021-11-24 16:51:26: xmlchange success <command> ./xmlchange PROJECT=P93300642,JOB_QUEUE=regular,RESUBMIT=10,STOP_N=1,STOP_OPTION=nyears  </command>
 ---------------------------------------------------
2021-11-24 16:51:26: case.submit starting 
 ---------------------------------------------------
2021-11-24 16:51:33: case.submit error 
ERROR: Build complete is not True please rebuild the model by calling case.build
 ---------------------------------------------------
2021-11-29 11:47:15: case.build starting 
 ---------------------------------------------------
CESM version is cam6_2_011-1294-ga0f77dc3c
Processing externals description file : Externals.cfg
Processing externals description file : Externals_CLM.cfg
Processing externals description file : Externals_FMS.cfg
Processing externals description file : Externals_CISM.cfg
Processing externals description file : Externals_CAM.cfg
Checking status of externals: clm, fates, ptclm, mosart, cime, cice, fms, fms, cism, source_cism, rtm, cam, silhs, clubb, pumas, atmos_phys, cosp2, chem_proc, mpas, atmos_cubed_sphere, carma, 
    ./chem_proc
        clean sandbox, on tools/proc_atm/chem_proc/release_tags/chem_proc5_0_04
 M  ./cime
        modified sandbox, on cime5.8.37
    ./components/cice
        clean sandbox, on cice5_20200430
    ./components/cism
        clean sandbox, on cism2_1_69
    ./components/cism/source_cism
        clean sandbox, on f1a88d6bbe3bb5e2e8817f91aed6de87227f4bb7
    ./components/clm
        clean sandbox, on ctsm5.1.dev019
    ./components/clm/src/fates
        clean sandbox, on sci.1.30.0_api.8.0.0
    ./components/clm/tools/PTCLM
        clean sandbox, on PTCLM2_20200121
    ./components/mosart
        clean sandbox, on branch_tag/pio2.n01_mosart1_0_38
    ./components/rtm
        clean sandbox, on branch_tag/nuopc_cap.n01_rtm1_0_73
    ./libraries/FMS
        clean sandbox, on fi_20200609
    ./libraries/FMS/src
        clean sandbox, on xanadu_esm4_20190304
    ./src/atmos_phys
        clean sandbox, on version0_00_007
    ./src/dynamics/fv3/atmos_cubed_sphere
        clean sandbox, on fv3_cesm.04
    ./src/dynamics/mpas/dycore
        clean sandbox, on d059bdf547163043011e765277216e2fe93b2f4b
    ./src/physics/carma/base
        clean sandbox, on carma/release_tags/carma3_49_rel
    ./src/physics/clubb
        clean sandbox, on clubb_release_b76a124_20200220_c20200320
    ./src/physics/cosp2/src
        clean sandbox, on CFMIP/COSPv2.0/tags/v2.1.4cesm/src
    ./src/physics/pumas
        clean sandbox, on pumas_cam-release_v1.12
    ./src/physics/silhs
        clean sandbox, on silhs_clubb_release_b76a124_20200220_c20200320
2021-11-29 11:50:17: case.build success 
 ---------------------------------------------------
2021-11-29 11:51:33: case.submit starting 
 ---------------------------------------------------
2021-11-29 11:51:48: case.submit success case.run:1655055.chadmin1.ib0.cheyenne.ucar.edu, case.st_archive:1655056.chadmin1.ib0.cheyenne.ucar.edu
 ---------------------------------------------------
2021-11-29 11:51:52: case.run starting 
 ---------------------------------------------------
2021-11-29 11:51:59: model execution starting 
 ---------------------------------------------------
2021-11-29 15:11:26: model execution success 
 ---------------------------------------------------
2021-11-29 15:11:26: case.run success 
 ---------------------------------------------------
2021-11-29 15:11:35: st_archive starting 
 ---------------------------------------------------
2021-11-29 15:11:49: st_archive success 
 ---------------------------------------------------
2021-11-29 15:11:49: case.submit starting 
 ---------------------------------------------------
2021-11-29 15:11:58: case.submit success case.run:1657890.chadmin1.ib0.cheyenne.ucar.edu, case.st_archive:1657893.chadmin1.ib0.cheyenne.ucar.edu
 ---------------------------------------------------
2021-11-29 15:21:13: case.run starting 
 ---------------------------------------------------
2021-11-29 15:21:20: model execution starting 
 ---------------------------------------------------
2021-11-29 18:36:33: model execution success 
 ---------------------------------------------------
2021-11-29 18:36:33: case.run success 
 ---------------------------------------------------
2021-11-29 18:37:16: st_archive starting 
 ---------------------------------------------------
2021-11-29 18:37:33: st_archive success 
 ---------------------------------------------------
2021-11-29 18:37:33: case.submit starting 
 ---------------------------------------------------
2021-11-29 18:37:45: case.submit success case.run:1661613.chadmin1.ib0.cheyenne.ucar.edu, case.st_archive:1661618.chadmin1.ib0.cheyenne.ucar.edu
 ---------------------------------------------------
2021-11-29 18:38:54: case.run starting 
 ---------------------------------------------------
2021-11-29 18:39:01: model execution starting 
 ---------------------------------------------------
2021-11-29 21:01:30: xmlchange success <command> ./xmlchange RESUBMIT=0  </command>
 ---------------------------------------------------
2021-11-29 21:05:11: xmlchange success <command> ./xmlchange RESUBMIT=0  </command>
 ---------------------------------------------------
2021-11-29 21:51:28: model execution success 
 ---------------------------------------------------
2021-11-29 21:51:28: case.run success 
 ---------------------------------------------------
2021-11-29 21:51:39: st_archive starting 
 ---------------------------------------------------
2021-11-29 21:51:55: st_archive success 
 ---------------------------------------------------
