2024-06-18 15:25:38: xmlchange success <command> ./xmlchange --append CAM_CONFIG_OPTS=-rad rrtmgp  </command>
 ---------------------------------------------------
2024-06-18 15:25:38: case.setup starting 
 ---------------------------------------------------
2024-06-18 15:25:41: case.setup success 
 ---------------------------------------------------
2024-06-18 15:25:53: xmlchange success <command> ./xmlchange RUN_TYPE=hybrid  </command>
 ---------------------------------------------------
2024-06-18 15:25:53: xmlchange success <command> ./xmlchange RUN_REFCASE=b.e23_alpha17f.BLT1850.ne30_t232.098  </command>
 ---------------------------------------------------
2024-06-18 15:25:54: xmlchange success <command> ./xmlchange RUN_REFDATE=0101-01-01  </command>
 ---------------------------------------------------
2024-06-18 15:25:54: xmlchange success <command> ./xmlchange GET_REFCASE=TRUE  </command>
 ---------------------------------------------------
2024-06-18 15:25:55: xmlchange success <command> ./xmlchange RUN_REFDIR=cesm2_init  </command>
 ---------------------------------------------------
2024-06-18 15:25:57: xmlchange success <command> ./xmlchange MOM6_VERTICAL_GRID=hycom1  </command>
 ---------------------------------------------------
2024-06-18 15:28:59: case.build starting 
 ---------------------------------------------------
2024-06-18 15:29:11: case.build error 
ERROR: Could not download refcase from any server
 ---------------------------------------------------
2024-06-18 15:33:10: xmlchange success <command> ./xmlchange RUN_TYPE=hybrid  </command>
 ---------------------------------------------------
2024-06-18 15:33:11: xmlchange success <command> ./xmlchange RUN_REFCASE=b.e23_alpha17f.BLT1850.ne30_t232.098  </command>
 ---------------------------------------------------
2024-06-18 15:33:11: xmlchange success <command> ./xmlchange RUN_REFDATE=0075-01-01  </command>
 ---------------------------------------------------
2024-06-18 15:33:11: xmlchange success <command> ./xmlchange GET_REFCASE=TRUE  </command>
 ---------------------------------------------------
2024-06-18 15:33:12: xmlchange success <command> ./xmlchange RUN_REFDIR=cesm2_init  </command>
 ---------------------------------------------------
2024-06-18 15:33:39: case.build starting 
 ---------------------------------------------------
2024-06-18 15:33:50: case.build error 
ERROR: Could not download refcase from any server
 ---------------------------------------------------
2024-06-18 15:35:16: case.build starting 
 ---------------------------------------------------
2024-06-18 15:51:04: case.build success 
 ---------------------------------------------------
2024-06-18 19:32:26: case.build starting 
 ---------------------------------------------------
2024-06-18 19:35:04: case.build success 
 ---------------------------------------------------
2024-06-18 19:38:39: xmlchange success <command> ./xmlchange PROJECT=CESM0023,RESUBMIT=50,STOP_N=2,STOP_OPTION=nyears  </command>
 ---------------------------------------------------
2024-06-18 19:38:39: xmlchange success <command> ./xmlchange CHARGE_ACCOUNT=CESM0023  </command>
 ---------------------------------------------------
2024-06-18 19:38:39: xmlchange success <command> ./xmlchange REST_OPTION=nyears,REST_N=1  </command>
 ---------------------------------------------------
2024-06-18 19:38:40: xmlchange success <command> ./xmlchange JOB_WALLCLOCK_TIME=12:00:00 --subgroup case.run  </command>
 ---------------------------------------------------
2024-06-18 19:38:51: case.submit starting 4884194.desched1
 ---------------------------------------------------
2024-06-18 19:38:51: case.submit success 4884194.desched1
 ---------------------------------------------------
2024-06-18 19:39:08: case.run starting 4884193.desched1
 ---------------------------------------------------
2024-06-18 19:39:18: model execution starting 4884193.desched1
 ---------------------------------------------------
2024-06-19 01:04:17: model execution success 4884193.desched1
 ---------------------------------------------------
2024-06-19 01:04:18: case.run success 4884193.desched1
 ---------------------------------------------------
2024-06-19 01:04:35: st_archive starting 4884194.desched1
 ---------------------------------------------------
2024-06-19 01:05:21: st_archive success 4884194.desched1
 ---------------------------------------------------
2024-06-19 01:05:22: case.submit starting 4886234.desched1
 ---------------------------------------------------
2024-06-19 01:05:22: case.submit success 4886234.desched1
 ---------------------------------------------------
2024-06-19 01:05:41: case.run starting 4886233.desched1
 ---------------------------------------------------
2024-06-19 01:05:50: model execution starting 4886233.desched1
 ---------------------------------------------------
2024-06-19 06:22:22: model execution success 4886233.desched1
 ---------------------------------------------------
2024-06-19 06:22:22: case.run success 4886233.desched1
 ---------------------------------------------------
2024-06-19 06:22:39: st_archive starting 4886234.desched1
 ---------------------------------------------------
2024-06-19 06:23:20: st_archive success 4886234.desched1
 ---------------------------------------------------
2024-06-19 06:23:21: case.submit starting 4887224.desched1
 ---------------------------------------------------
2024-06-19 06:23:21: case.submit success 4887224.desched1
 ---------------------------------------------------
2024-06-19 06:23:35: case.run starting 4887223.desched1
 ---------------------------------------------------
2024-06-19 06:23:40: model execution starting 4887223.desched1
 ---------------------------------------------------
2024-06-19 11:41:23: model execution success 4887223.desched1
 ---------------------------------------------------
2024-06-19 11:41:23: case.run success 4887223.desched1
 ---------------------------------------------------
2024-06-19 11:41:47: st_archive starting 4887224.desched1
 ---------------------------------------------------
2024-06-19 11:42:32: st_archive success 4887224.desched1
 ---------------------------------------------------
2024-06-19 11:42:35: case.submit starting 4889648.desched1
 ---------------------------------------------------
2024-06-19 11:42:35: case.submit success 4889648.desched1
 ---------------------------------------------------
2024-06-19 11:42:48: case.run starting 4889647.desched1
 ---------------------------------------------------
2024-06-19 11:42:54: model execution starting 4889647.desched1
 ---------------------------------------------------
2024-06-19 17:00:56: model execution success 4889647.desched1
 ---------------------------------------------------
2024-06-19 17:00:56: case.run success 4889647.desched1
 ---------------------------------------------------
2024-06-19 17:01:15: st_archive starting 4889648.desched1
 ---------------------------------------------------
2024-06-19 17:01:55: st_archive success 4889648.desched1
 ---------------------------------------------------
2024-06-19 17:01:55: case.submit starting 4892331.desched1
 ---------------------------------------------------
2024-06-19 17:01:55: case.submit success 4892331.desched1
 ---------------------------------------------------
2024-06-19 17:02:15: case.run starting 4892330.desched1
 ---------------------------------------------------
2024-06-19 17:02:23: model execution starting 4892330.desched1
 ---------------------------------------------------
2024-06-19 22:21:07: model execution success 4892330.desched1
 ---------------------------------------------------
2024-06-19 22:21:08: case.run success 4892330.desched1
 ---------------------------------------------------
2024-06-19 22:21:28: st_archive starting 4892331.desched1
 ---------------------------------------------------
2024-06-19 22:22:17: st_archive success 4892331.desched1
 ---------------------------------------------------
2024-06-19 22:22:17: case.submit starting 4895295.desched1
 ---------------------------------------------------
2024-06-19 22:22:17: case.submit success 4895295.desched1
 ---------------------------------------------------
2024-06-19 22:22:40: case.run starting 4895294.desched1
 ---------------------------------------------------
2024-06-19 22:23:07: model execution starting 4895294.desched1
 ---------------------------------------------------
2024-06-20 03:42:20: model execution success 4895294.desched1
 ---------------------------------------------------
2024-06-20 03:42:20: case.run success 4895294.desched1
 ---------------------------------------------------
2024-06-20 03:42:35: st_archive starting 4895295.desched1
 ---------------------------------------------------
2024-06-20 03:43:13: st_archive success 4895295.desched1
 ---------------------------------------------------
2024-06-20 03:43:14: case.submit starting 4896385.desched1
 ---------------------------------------------------
2024-06-20 03:43:14: case.submit success 4896385.desched1
 ---------------------------------------------------
2024-06-20 03:43:30: case.run starting 4896384.desched1
 ---------------------------------------------------
2024-06-20 03:43:36: model execution starting 4896384.desched1
 ---------------------------------------------------
2024-06-20 09:02:21: model execution success 4896384.desched1
 ---------------------------------------------------
2024-06-20 09:02:21: case.run success 4896384.desched1
 ---------------------------------------------------
2024-06-20 09:02:36: st_archive starting 4896385.desched1
 ---------------------------------------------------
2024-06-20 09:03:20: st_archive success 4896385.desched1
 ---------------------------------------------------
2024-06-20 09:03:20: case.submit starting 4897576.desched1
 ---------------------------------------------------
2024-06-20 09:03:20: case.submit success 4897576.desched1
 ---------------------------------------------------
2024-06-20 09:03:34: case.run starting 4897575.desched1
 ---------------------------------------------------
2024-06-20 09:03:42: model execution starting 4897575.desched1
 ---------------------------------------------------
2024-06-20 14:26:59: model execution success 4897575.desched1
 ---------------------------------------------------
2024-06-20 14:26:59: case.run success 4897575.desched1
 ---------------------------------------------------
2024-06-20 14:27:24: st_archive starting 4897576.desched1
 ---------------------------------------------------
2024-06-20 14:28:04: st_archive success 4897576.desched1
 ---------------------------------------------------
2024-06-20 14:28:04: case.submit starting 4900875.desched1
 ---------------------------------------------------
2024-06-20 14:28:04: case.submit success 4900875.desched1
 ---------------------------------------------------
2024-06-20 14:28:24: case.run starting 4900874.desched1
 ---------------------------------------------------
2024-06-20 14:28:30: model execution starting 4900874.desched1
 ---------------------------------------------------
2024-06-20 19:49:49: model execution success 4900874.desched1
 ---------------------------------------------------
2024-06-20 19:49:49: case.run success 4900874.desched1
 ---------------------------------------------------
2024-06-20 19:50:11: st_archive starting 4900875.desched1
 ---------------------------------------------------
2024-06-20 19:50:50: st_archive success 4900875.desched1
 ---------------------------------------------------
2024-06-20 19:50:54: case.submit starting 4906054.desched1
 ---------------------------------------------------
2024-06-20 19:50:54: case.submit success 4906054.desched1
 ---------------------------------------------------
2024-06-20 19:51:15: case.run starting 4906053.desched1
 ---------------------------------------------------
2024-06-20 19:51:21: model execution starting 4906053.desched1
 ---------------------------------------------------
2024-06-21 01:09:30: model execution success 4906053.desched1
 ---------------------------------------------------
2024-06-21 01:09:30: case.run success 4906053.desched1
 ---------------------------------------------------
2024-06-21 01:10:30: st_archive starting 4906054.desched1
 ---------------------------------------------------
2024-06-21 01:11:14: st_archive success 4906054.desched1
 ---------------------------------------------------
2024-06-21 01:11:15: case.submit starting 4910375.desched1
 ---------------------------------------------------
2024-06-21 01:11:15: case.submit success 4910375.desched1
 ---------------------------------------------------
2024-06-21 01:11:33: case.run starting 4910374.desched1
 ---------------------------------------------------
2024-06-21 01:12:06: model execution starting 4910374.desched1
 ---------------------------------------------------
2024-06-21 06:26:59: model execution success 4910374.desched1
 ---------------------------------------------------
2024-06-21 06:26:59: case.run success 4910374.desched1
 ---------------------------------------------------
2024-06-21 06:27:14: st_archive starting 4910375.desched1
 ---------------------------------------------------
2024-06-21 06:27:55: st_archive success 4910375.desched1
 ---------------------------------------------------
2024-06-21 06:27:56: case.submit starting 4912191.desched1
 ---------------------------------------------------
2024-06-21 06:27:56: case.submit success 4912191.desched1
 ---------------------------------------------------
2024-06-21 06:28:10: case.run starting 4912190.desched1
 ---------------------------------------------------
2024-06-21 06:28:14: model execution starting 4912190.desched1
 ---------------------------------------------------
2024-06-21 11:47:20: model execution success 4912190.desched1
 ---------------------------------------------------
2024-06-21 11:47:20: case.run success 4912190.desched1
 ---------------------------------------------------
2024-06-21 11:48:01: st_archive starting 4912191.desched1
 ---------------------------------------------------
2024-06-21 11:48:55: st_archive success 4912191.desched1
 ---------------------------------------------------
2024-06-21 11:48:57: case.submit starting 4914981.desched1
 ---------------------------------------------------
2024-06-21 11:48:57: case.submit success 4914981.desched1
 ---------------------------------------------------
2024-06-21 11:49:25: case.run starting 4914980.desched1
 ---------------------------------------------------
2024-06-21 11:49:40: model execution starting 4914980.desched1
 ---------------------------------------------------
2024-06-21 17:20:37: model execution success 4914980.desched1
 ---------------------------------------------------
2024-06-21 17:20:37: case.run success 4914980.desched1
 ---------------------------------------------------
2024-06-21 17:21:01: st_archive starting 4914981.desched1
 ---------------------------------------------------
2024-06-21 17:21:47: st_archive success 4914981.desched1
 ---------------------------------------------------
2024-06-21 17:21:47: case.submit starting 4919309.desched1
 ---------------------------------------------------
2024-06-21 17:21:47: case.submit success 4919309.desched1
 ---------------------------------------------------
2024-06-21 17:22:17: case.run starting 4919308.desched1
 ---------------------------------------------------
2024-06-21 17:22:42: model execution starting 4919308.desched1
 ---------------------------------------------------
2024-06-21 22:50:23: model execution success 4919308.desched1
 ---------------------------------------------------
2024-06-21 22:50:23: case.run success 4919308.desched1
 ---------------------------------------------------
2024-06-21 22:50:43: st_archive starting 4919309.desched1
 ---------------------------------------------------
2024-06-21 22:51:28: st_archive success 4919309.desched1
 ---------------------------------------------------
2024-06-21 22:51:28: case.submit starting 4921427.desched1
 ---------------------------------------------------
2024-06-21 22:51:28: case.submit success 4921427.desched1
 ---------------------------------------------------
2024-06-21 22:52:17: case.run starting 4921426.desched1
 ---------------------------------------------------
2024-06-21 22:52:34: model execution starting 4921426.desched1
 ---------------------------------------------------
2024-06-22 04:11:30: model execution success 4921426.desched1
 ---------------------------------------------------
2024-06-22 04:11:30: case.run success 4921426.desched1
 ---------------------------------------------------
2024-06-22 04:11:52: st_archive starting 4921427.desched1
 ---------------------------------------------------
2024-06-22 04:12:38: st_archive success 4921427.desched1
 ---------------------------------------------------
2024-06-22 04:12:38: case.submit starting 4922544.desched1
 ---------------------------------------------------
2024-06-22 04:12:38: case.submit success 4922544.desched1
 ---------------------------------------------------
2024-06-22 04:12:56: case.run starting 4922543.desched1
 ---------------------------------------------------
2024-06-22 04:13:01: model execution starting 4922543.desched1
 ---------------------------------------------------
2024-06-22 09:27:12: model execution success 4922543.desched1
 ---------------------------------------------------
2024-06-22 09:27:12: case.run success 4922543.desched1
 ---------------------------------------------------
2024-06-22 09:27:34: st_archive starting 4922544.desched1
 ---------------------------------------------------
2024-06-22 09:28:25: st_archive success 4922544.desched1
 ---------------------------------------------------
2024-06-22 09:28:26: case.submit starting 4924561.desched1
 ---------------------------------------------------
2024-06-22 09:28:26: case.submit success 4924561.desched1
 ---------------------------------------------------
2024-06-22 09:28:43: case.run starting 4924560.desched1
 ---------------------------------------------------
2024-06-22 09:28:48: model execution starting 4924560.desched1
 ---------------------------------------------------
2024-06-22 14:46:28: model execution success 4924560.desched1
 ---------------------------------------------------
2024-06-22 14:46:28: case.run success 4924560.desched1
 ---------------------------------------------------
2024-06-22 14:46:46: st_archive starting 4924561.desched1
 ---------------------------------------------------
2024-06-22 14:47:28: st_archive success 4924561.desched1
 ---------------------------------------------------
2024-06-22 14:47:29: case.submit starting 4926980.desched1
 ---------------------------------------------------
2024-06-22 14:47:29: case.submit success 4926980.desched1
 ---------------------------------------------------
2024-06-22 14:47:46: case.run starting 4926979.desched1
 ---------------------------------------------------
2024-06-22 14:48:00: model execution starting 4926979.desched1
 ---------------------------------------------------
2024-06-22 20:02:13: model execution success 4926979.desched1
 ---------------------------------------------------
2024-06-22 20:02:14: case.run success 4926979.desched1
 ---------------------------------------------------
2024-06-22 20:02:29: st_archive starting 4926980.desched1
 ---------------------------------------------------
2024-06-22 20:03:18: st_archive success 4926980.desched1
 ---------------------------------------------------
2024-06-22 20:03:18: case.submit starting 4927918.desched1
 ---------------------------------------------------
2024-06-22 20:03:18: case.submit success 4927918.desched1
 ---------------------------------------------------
2024-06-22 20:03:37: case.run starting 4927917.desched1
 ---------------------------------------------------
2024-06-22 20:03:42: model execution starting 4927917.desched1
 ---------------------------------------------------
2024-06-23 01:19:08: model execution success 4927917.desched1
 ---------------------------------------------------
2024-06-23 01:19:08: case.run success 4927917.desched1
 ---------------------------------------------------
2024-06-23 01:19:27: st_archive starting 4927918.desched1
 ---------------------------------------------------
2024-06-23 01:20:15: st_archive success 4927918.desched1
 ---------------------------------------------------
2024-06-23 01:20:16: case.submit starting 4929386.desched1
 ---------------------------------------------------
2024-06-23 01:20:16: case.submit success 4929386.desched1
 ---------------------------------------------------
2024-06-23 01:20:33: case.run starting 4929385.desched1
 ---------------------------------------------------
2024-06-23 01:20:38: model execution starting 4929385.desched1
 ---------------------------------------------------
2024-06-23 06:35:38: model execution success 4929385.desched1
 ---------------------------------------------------
2024-06-23 06:35:38: case.run success 4929385.desched1
 ---------------------------------------------------
2024-06-23 06:35:55: st_archive starting 4929386.desched1
 ---------------------------------------------------
2024-06-23 06:36:41: st_archive success 4929386.desched1
 ---------------------------------------------------
2024-06-23 06:36:41: case.submit starting 4929904.desched1
 ---------------------------------------------------
2024-06-23 06:36:41: case.submit success 4929904.desched1
 ---------------------------------------------------
2024-06-23 06:37:02: case.run starting 4929903.desched1
 ---------------------------------------------------
2024-06-23 06:37:18: model execution starting 4929903.desched1
 ---------------------------------------------------
2024-06-23 11:54:04: model execution success 4929903.desched1
 ---------------------------------------------------
2024-06-23 11:54:04: case.run success 4929903.desched1
 ---------------------------------------------------
2024-06-23 11:55:02: st_archive starting 4929904.desched1
 ---------------------------------------------------
2024-06-23 11:55:47: st_archive success 4929904.desched1
 ---------------------------------------------------
2024-06-23 11:55:48: case.submit starting 4931285.desched1
 ---------------------------------------------------
2024-06-23 11:55:48: case.submit success 4931285.desched1
 ---------------------------------------------------
2024-06-23 11:56:08: case.run starting 4931284.desched1
 ---------------------------------------------------
2024-06-23 11:56:22: model execution starting 4931284.desched1
 ---------------------------------------------------
2024-06-23 17:15:44: model execution success 4931284.desched1
 ---------------------------------------------------
2024-06-23 17:15:44: case.run success 4931284.desched1
 ---------------------------------------------------
2024-06-23 17:15:59: st_archive starting 4931285.desched1
 ---------------------------------------------------
2024-06-23 17:16:39: st_archive success 4931285.desched1
 ---------------------------------------------------
2024-06-23 17:16:40: case.submit starting 4932734.desched1
 ---------------------------------------------------
2024-06-23 17:16:40: case.submit success 4932734.desched1
 ---------------------------------------------------
2024-06-23 17:16:53: case.run starting 4932733.desched1
 ---------------------------------------------------
2024-06-23 17:16:58: model execution starting 4932733.desched1
 ---------------------------------------------------
2024-06-23 22:32:01: model execution success 4932733.desched1
 ---------------------------------------------------
2024-06-23 22:32:01: case.run error 
ERROR: Model did not complete, no /glade/derecho/scratch/hannay/b.e23_alpha17f.BLTHIST.ne30_t232.098/run/cesm.log.4932733.desched1.240623-171653 log file 
 ---------------------------------------------------
2024-06-24 09:12:36: xmlchange success <command> ./xmlchange RESUBMIT=50  </command>
 ---------------------------------------------------
2024-06-24 09:12:45: case.submit starting 4936253.desched1
 ---------------------------------------------------
2024-06-24 09:12:45: case.submit success 4936253.desched1
 ---------------------------------------------------
2024-06-24 09:13:02: case.run starting 4936252.desched1
 ---------------------------------------------------
2024-06-24 09:13:15: model execution starting 4936252.desched1
 ---------------------------------------------------
2024-06-24 14:36:33: model execution success 4936252.desched1
 ---------------------------------------------------
2024-06-24 14:36:34: case.run success 4936252.desched1
 ---------------------------------------------------
2024-06-24 14:36:50: st_archive starting 4936253.desched1
 ---------------------------------------------------
2024-06-24 14:37:42: st_archive success 4936253.desched1
 ---------------------------------------------------
2024-06-24 14:37:43: case.submit starting 4939515.desched1
 ---------------------------------------------------
2024-06-24 14:37:43: case.submit success 4939515.desched1
 ---------------------------------------------------
2024-06-24 14:38:05: case.run starting 4939514.desched1
 ---------------------------------------------------
2024-06-24 14:38:17: model execution starting 4939514.desched1
 ---------------------------------------------------
2024-06-24 20:04:08: model execution success 4939514.desched1
 ---------------------------------------------------
2024-06-24 20:04:08: case.run success 4939514.desched1
 ---------------------------------------------------
2024-06-24 20:04:24: st_archive starting 4939515.desched1
 ---------------------------------------------------
2024-06-24 20:05:04: st_archive success 4939515.desched1
 ---------------------------------------------------
2024-06-24 20:05:04: case.submit starting 4941860.desched1
 ---------------------------------------------------
2024-06-24 20:05:04: case.submit success 4941860.desched1
 ---------------------------------------------------
2024-06-24 20:06:13: case.run starting 4941859.desched1
 ---------------------------------------------------
2024-06-24 20:06:17: model execution starting 4941859.desched1
 ---------------------------------------------------
2024-06-25 01:27:16: model execution success 4941859.desched1
 ---------------------------------------------------
2024-06-25 01:27:16: case.run success 4941859.desched1
 ---------------------------------------------------
2024-06-25 01:28:00: st_archive starting 4941860.desched1
 ---------------------------------------------------
2024-06-25 01:28:49: st_archive success 4941860.desched1
 ---------------------------------------------------
2024-06-25 01:28:52: case.submit starting 4943868.desched1
 ---------------------------------------------------
2024-06-25 01:28:52: case.submit success 4943868.desched1
 ---------------------------------------------------
2024-06-25 01:29:24: case.run starting 4943867.desched1
 ---------------------------------------------------
2024-06-25 01:29:46: model execution starting 4943867.desched1
 ---------------------------------------------------
2024-06-25 06:58:38: model execution success 4943867.desched1
 ---------------------------------------------------
2024-06-25 06:58:38: case.run success 4943867.desched1
 ---------------------------------------------------
2024-06-25 06:58:54: st_archive starting 4943868.desched1
 ---------------------------------------------------
2024-06-25 06:59:36: st_archive success 4943868.desched1
 ---------------------------------------------------
2024-06-25 06:59:37: case.submit starting 4944786.desched1
 ---------------------------------------------------
2024-06-25 06:59:37: case.submit success 4944786.desched1
 ---------------------------------------------------
2024-06-25 06:59:50: case.run starting 4944785.desched1
 ---------------------------------------------------
2024-06-25 06:59:54: model execution starting 4944785.desched1
 ---------------------------------------------------
2024-06-25 12:20:23: model execution success 4944785.desched1
 ---------------------------------------------------
2024-06-25 12:20:23: case.run success 4944785.desched1
 ---------------------------------------------------
2024-06-25 12:20:44: st_archive starting 4944786.desched1
 ---------------------------------------------------
2024-06-25 12:21:27: st_archive success 4944786.desched1
 ---------------------------------------------------
2024-06-25 12:21:29: case.submit starting 4948074.desched1
 ---------------------------------------------------
2024-06-25 12:21:29: case.submit success 4948074.desched1
 ---------------------------------------------------
2024-06-25 12:21:50: case.run starting 4948073.desched1
 ---------------------------------------------------
2024-06-25 12:21:59: model execution starting 4948073.desched1
 ---------------------------------------------------
2024-06-25 17:42:48: model execution success 4948073.desched1
 ---------------------------------------------------
2024-06-25 17:42:48: case.run success 4948073.desched1
 ---------------------------------------------------
2024-06-25 17:43:09: st_archive starting 4948074.desched1
 ---------------------------------------------------
2024-06-25 17:43:54: st_archive success 4948074.desched1
 ---------------------------------------------------
2024-06-25 17:43:55: case.submit starting 4951832.desched1
 ---------------------------------------------------
2024-06-25 17:43:55: case.submit success 4951832.desched1
 ---------------------------------------------------
2024-06-25 17:44:54: case.run starting 4951831.desched1
 ---------------------------------------------------
2024-06-25 17:45:06: model execution starting 4951831.desched1
 ---------------------------------------------------
2024-06-25 23:09:13: model execution success 4951831.desched1