2024-01-26 13:57:17: case.setup starting 
 ---------------------------------------------------
2024-01-26 13:57:30: case.setup success 
 ---------------------------------------------------
2024-01-26 14:08:03: case.build starting 
 ---------------------------------------------------
2024-01-26 14:18:54: case.setup starting 
 ---------------------------------------------------
2024-01-26 14:18:56: case.setup success 
 ---------------------------------------------------
2024-01-26 14:19:27: case.build starting 
 ---------------------------------------------------
2024-01-26 14:20:01: case.build error 
ERROR: BUILD FAIL: cism.buildlib failed, cat /glade/derecho/scratch/hannay/b.e23_alpha16g.BLT1850.ne30_t232.078/bld/glc.bldlog.240126-141927
 ---------------------------------------------------
2024-01-26 14:20:02: xmlchange success <command> ./xmlchange PROJECT=CESM0023,RESUBMIT=10,STOP_N=2,STOP_OPTION=nyears  </command>
 ---------------------------------------------------
2024-01-26 14:20:02: xmlchange success <command> ./xmlchange REST_OPTION=nyears,REST_N=1  </command>
 ---------------------------------------------------
2024-01-26 14:21:01: xmlchange success <command> ./xmlchange JOB_WALLCLOCK_TIME=12:00:00  </command>
 ---------------------------------------------------
2024-01-26 14:21:17: build.clean starting 
 ---------------------------------------------------
2024-01-26 14:21:22: case.build error 
ERROR: BUILD FAIL: cism.buildlib failed, cat /glade/derecho/scratch/hannay/b.e23_alpha16g.BLT1850.ne30_t232.078/bld/glc.bldlog.240126-140803
 ---------------------------------------------------
2024-01-26 14:21:22: build.clean success 
 ---------------------------------------------------
2024-01-26 14:27:01: case.build starting 
 ---------------------------------------------------
2024-01-26 14:41:30: case.build success 
 ---------------------------------------------------
2024-01-26 14:44:46: xmlchange success <command> ./xmlchange PROJECT=CESM0023,RESUBMIT=10,STOP_N=2,STOP_OPTION=nyears  </command>
 ---------------------------------------------------
2024-01-26 14:44:46: xmlchange success <command> ./xmlchange REST_OPTION=nyears,REST_N=1  </command>
 ---------------------------------------------------
2024-01-26 14:44:46: xmlchange success <command> ./xmlchange JOB_WALLCLOCK_TIME=12:00:00  </command>
 ---------------------------------------------------
2024-01-26 14:44:55: case.submit starting 2937433.desched1
 ---------------------------------------------------
2024-01-26 14:44:55: case.submit success 2937433.desched1
 ---------------------------------------------------
2024-01-26 14:54:08: case.run starting 2937432.desched1
 ---------------------------------------------------
2024-01-26 14:54:14: model execution starting 2937432.desched1
 ---------------------------------------------------
2024-01-26 19:24:31: model execution success 2937432.desched1
 ---------------------------------------------------
2024-01-26 19:24:31: case.run success 2937432.desched1
 ---------------------------------------------------
2024-01-26 19:26:27: st_archive starting 2937433.desched1
 ---------------------------------------------------
2024-01-26 19:26:54: st_archive success 2937433.desched1
 ---------------------------------------------------
2024-01-26 19:26:55: case.submit starting 2938784.desched1
 ---------------------------------------------------
2024-01-26 19:26:55: case.submit success 2938784.desched1
 ---------------------------------------------------
2024-01-26 19:35:00: case.run starting 2938783.desched1
 ---------------------------------------------------
2024-01-26 19:35:06: model execution starting 2938783.desched1
 ---------------------------------------------------
2024-01-27 00:06:09: model execution success 2938783.desched1
 ---------------------------------------------------
2024-01-27 00:06:09: case.run success 2938783.desched1
 ---------------------------------------------------
2024-01-27 00:06:27: st_archive starting 2938784.desched1
 ---------------------------------------------------
2024-01-27 00:06:56: st_archive success 2938784.desched1
 ---------------------------------------------------
2024-01-27 00:06:57: case.submit starting 2939914.desched1
 ---------------------------------------------------
2024-01-27 00:06:57: case.submit success 2939914.desched1
 ---------------------------------------------------
2024-01-27 00:07:28: case.run starting 2939913.desched1
 ---------------------------------------------------
2024-01-27 00:07:35: model execution starting 2939913.desched1
 ---------------------------------------------------
2024-01-27 04:57:49: model execution success 2939913.desched1
 ---------------------------------------------------
2024-01-27 04:57:49: case.run success 2939913.desched1
 ---------------------------------------------------
2024-01-27 04:58:08: st_archive starting 2939914.desched1
 ---------------------------------------------------
2024-01-27 04:58:37: st_archive success 2939914.desched1
 ---------------------------------------------------
2024-01-27 04:58:38: case.submit starting 2942022.desched1
 ---------------------------------------------------
2024-01-27 04:58:38: case.submit success 2942022.desched1
 ---------------------------------------------------
2024-01-27 04:58:56: case.run starting 2942021.desched1
 ---------------------------------------------------
2024-01-27 04:59:01: model execution starting 2942021.desched1
 ---------------------------------------------------
2024-01-27 09:30:16: model execution success 2942021.desched1
 ---------------------------------------------------
2024-01-27 09:30:16: case.run success 2942021.desched1
 ---------------------------------------------------
2024-01-27 09:47:47: st_archive starting 2942022.desched1
 ---------------------------------------------------
2024-01-27 09:48:16: st_archive success 2942022.desched1
 ---------------------------------------------------
2024-01-27 09:48:16: case.submit starting 2945934.desched1
 ---------------------------------------------------
2024-01-27 09:48:16: case.submit success 2945934.desched1
 ---------------------------------------------------
2024-01-27 09:48:32: case.run starting 2945933.desched1
 ---------------------------------------------------
2024-01-27 09:48:38: model execution starting 2945933.desched1
 ---------------------------------------------------
2024-01-27 14:18:32: model execution success 2945933.desched1
 ---------------------------------------------------
2024-01-27 14:18:32: case.run success 2945933.desched1
 ---------------------------------------------------
2024-01-27 14:18:53: st_archive starting 2945934.desched1
 ---------------------------------------------------
2024-01-27 14:19:21: st_archive success 2945934.desched1
 ---------------------------------------------------
2024-01-27 14:19:21: case.submit starting 2946961.desched1
 ---------------------------------------------------
2024-01-27 14:19:21: case.submit success 2946961.desched1
 ---------------------------------------------------
2024-01-27 14:21:12: case.run starting 2946960.desched1
 ---------------------------------------------------
2024-01-27 14:21:17: model execution starting 2946960.desched1
 ---------------------------------------------------
2024-01-27 18:50:37: model execution success 2946960.desched1
 ---------------------------------------------------
2024-01-27 18:50:37: case.run success 2946960.desched1
 ---------------------------------------------------
2024-01-27 20:45:24: st_archive starting 2946961.desched1
 ---------------------------------------------------
2024-01-27 20:45:52: st_archive success 2946961.desched1
 ---------------------------------------------------
2024-01-27 20:45:55: case.submit starting 2949140.desched1
 ---------------------------------------------------
2024-01-27 20:45:55: case.submit success 2949140.desched1
 ---------------------------------------------------
2024-01-27 20:51:32: case.run starting 2949137.desched1
 ---------------------------------------------------
2024-01-27 20:51:39: model execution starting 2949137.desched1
 ---------------------------------------------------
2024-01-28 01:24:31: model execution success 2949137.desched1
 ---------------------------------------------------
2024-01-28 01:24:31: case.run success 2949137.desched1
 ---------------------------------------------------
2024-01-28 01:25:06: st_archive starting 2949140.desched1
 ---------------------------------------------------
2024-01-28 01:25:34: st_archive success 2949140.desched1
 ---------------------------------------------------
2024-01-28 01:25:35: case.submit starting 2949751.desched1
 ---------------------------------------------------
2024-01-28 01:25:35: case.submit success 2949751.desched1
 ---------------------------------------------------
2024-01-28 01:26:08: case.run starting 2949750.desched1
 ---------------------------------------------------
2024-01-28 01:26:21: model execution starting 2949750.desched1
 ---------------------------------------------------
2024-01-28 05:57:59: model execution success 2949750.desched1
 ---------------------------------------------------
2024-01-28 05:57:59: case.run success 2949750.desched1
 ---------------------------------------------------
2024-01-28 05:58:16: st_archive starting 2949751.desched1
 ---------------------------------------------------
2024-01-28 05:58:43: st_archive success 2949751.desched1
 ---------------------------------------------------
2024-01-28 05:58:44: case.submit starting 2950188.desched1
 ---------------------------------------------------
2024-01-28 05:58:44: case.submit success 2950188.desched1
 ---------------------------------------------------
2024-01-28 05:59:01: case.run starting 2950187.desched1
 ---------------------------------------------------
2024-01-28 05:59:06: model execution starting 2950187.desched1
 ---------------------------------------------------
2024-01-28 10:28:06: model execution success 2950187.desched1
 ---------------------------------------------------
2024-01-28 10:28:06: case.run success 2950187.desched1
 ---------------------------------------------------
2024-01-28 10:28:54: st_archive starting 2950188.desched1
 ---------------------------------------------------
2024-01-28 10:29:22: st_archive success 2950188.desched1
 ---------------------------------------------------
2024-01-28 10:29:24: case.submit starting 2950696.desched1
 ---------------------------------------------------
2024-01-28 10:29:24: case.submit success 2950696.desched1
 ---------------------------------------------------
2024-01-28 10:29:43: case.run starting 2950695.desched1
 ---------------------------------------------------
2024-01-28 10:29:49: model execution starting 2950695.desched1
 ---------------------------------------------------
2024-01-28 15:00:11: model execution success 2950695.desched1
 ---------------------------------------------------
2024-01-28 15:00:11: case.run success 2950695.desched1
 ---------------------------------------------------
2024-01-28 15:00:29: st_archive starting 2950696.desched1
 ---------------------------------------------------
2024-01-28 15:00:58: st_archive success 2950696.desched1
 ---------------------------------------------------
2024-01-28 15:00:58: case.submit starting 2951125.desched1
 ---------------------------------------------------
2024-01-28 15:00:58: case.submit success 2951125.desched1
 ---------------------------------------------------
2024-01-28 15:01:19: case.run starting 2951124.desched1
 ---------------------------------------------------
2024-01-28 15:01:25: model execution starting 2951124.desched1
 ---------------------------------------------------
2024-01-28 19:31:50: model execution success 2951124.desched1
 ---------------------------------------------------
2024-01-28 19:31:50: case.run success 2951124.desched1
 ---------------------------------------------------
2024-01-28 19:32:10: st_archive starting 2951125.desched1
 ---------------------------------------------------
2024-01-28 19:32:42: st_archive success 2951125.desched1
 ---------------------------------------------------
