2024-10-03 11:16:47: xmlchange success <command> ./xmlchange --append CAM_CONFIG_OPTS=-rad rrtmgp  </command>
 ---------------------------------------------------
2024-10-03 11:16:47: xmlchange success <command> ./xmlchange NTASKS=6144  </command>
 ---------------------------------------------------
2024-10-03 11:16:47: case.setup starting 
 ---------------------------------------------------
2024-10-03 11:16:54: case.setup success 
 ---------------------------------------------------
2024-10-03 11:17:00: xmlchange success <command> ./xmlchange RUN_STARTDATE=2000-01-01  </command>
 ---------------------------------------------------
2024-10-03 11:19:31: case.build starting 
 ---------------------------------------------------
2024-10-03 11:28:23: case.build starting 
 ---------------------------------------------------
2024-10-03 11:30:17: case.build starting 
 ---------------------------------------------------
2024-10-03 11:30:59: case.build error 
ERROR: BUILD FAIL: buildexe failed, cat /glade/derecho/scratch/hannay/f.e30_cam6_4_036.FLTHIST.ne120_L58.001/bld/cesm.bldlog.241003-113017
 ---------------------------------------------------
2024-10-03 11:31:48: case.build starting 
 ---------------------------------------------------
2024-10-03 11:32:11: case.build success 
 ---------------------------------------------------
2024-10-03 11:33:46: case.build success 
 ---------------------------------------------------
2024-10-03 12:28:30: xmlchange success <command> ./xmlchange PROJECT=CESM0023,RESUBMIT=10,STOP_N=2,STOP_OPTION=nyears  </command>
 ---------------------------------------------------
2024-10-03 12:28:31: xmlchange success <command> ./xmlchange PROJECT=CESM0023,RESUBMIT=59,STOP_N=2,STOP_OPTION=nmonths  </command>
 ---------------------------------------------------
2024-10-03 12:28:31: xmlchange success <command> ./xmlchange CHARGE_ACCOUNT=CESM0023  </command>
 ---------------------------------------------------
2024-10-03 12:28:32: xmlchange success <command> ./xmlchange REST_OPTION=nmonths,REST_N=2  </command>
 ---------------------------------------------------
2024-10-03 12:28:33: xmlchange success <command> ./xmlchange JOB_WALLCLOCK_TIME=12:00:00 --subgroup case.run  </command>
 ---------------------------------------------------
2024-10-03 12:28:37: xmlchange success <command> ./xmlchange JOB_PRIORITY=premium  </command>
 ---------------------------------------------------
2024-10-03 12:31:59: xmlchange success <command> ./xmlchange PROJECT=CESM0023,RESUBMIT=10,STOP_N=2,STOP_OPTION=nyears  </command>
 ---------------------------------------------------
2024-10-03 12:32:00: xmlchange success <command> ./xmlchange PROJECT=CESM0023,RESUBMIT=59,STOP_N=2,STOP_OPTION=nmonths  </command>
 ---------------------------------------------------
2024-10-03 12:32:01: xmlchange success <command> ./xmlchange CHARGE_ACCOUNT=CESM0023  </command>
 ---------------------------------------------------
2024-10-03 12:32:01: xmlchange success <command> ./xmlchange REST_OPTION=nmonths,REST_N=2  </command>
 ---------------------------------------------------
2024-10-03 12:32:02: xmlchange success <command> ./xmlchange JOB_WALLCLOCK_TIME=12:00:00 --subgroup case.run  </command>
 ---------------------------------------------------
2024-10-03 12:32:02: xmlchange success <command> ./xmlchange JOB_PRIORITY=premium  </command>
 ---------------------------------------------------
2024-10-03 12:32:34: case.submit starting 6259719.desched1
 ---------------------------------------------------
2024-10-03 12:32:34: case.submit success 6259719.desched1
 ---------------------------------------------------
2024-10-03 12:49:51: case.run starting 6259718.desched1
 ---------------------------------------------------
2024-10-03 12:50:01: model execution starting 6259718.desched1
 ---------------------------------------------------
2024-10-03 17:55:56: model execution success 6259718.desched1
 ---------------------------------------------------
2024-10-03 17:55:56: case.run success 6259718.desched1
 ---------------------------------------------------
2024-10-03 17:56:42: st_archive starting 6259719.desched1
 ---------------------------------------------------
2024-10-03 18:08:35: st_archive success 6259719.desched1
 ---------------------------------------------------
2024-10-03 18:08:36: case.submit starting 6262204.desched1
 ---------------------------------------------------
2024-10-03 18:08:36: case.submit success 6262204.desched1
 ---------------------------------------------------
2024-10-03 18:38:50: case.run starting 6262203.desched1
 ---------------------------------------------------
2024-10-03 18:39:16: model execution starting 6262203.desched1
 ---------------------------------------------------
2024-10-04 00:00:43: model execution success 6262203.desched1
 ---------------------------------------------------
2024-10-04 00:00:43: case.run success 6262203.desched1
 ---------------------------------------------------
2024-10-04 00:01:09: st_archive starting 6262204.desched1
 ---------------------------------------------------
2024-10-04 00:18:16: st_archive success 6262204.desched1
 ---------------------------------------------------
2024-10-04 00:18:18: case.submit starting 6268299.desched1
 ---------------------------------------------------
2024-10-04 00:18:18: case.submit success 6268299.desched1
 ---------------------------------------------------
2024-10-04 00:18:49: case.run starting 6268298.desched1
 ---------------------------------------------------
2024-10-04 00:19:11: model execution starting 6268298.desched1
 ---------------------------------------------------
2024-10-04 05:43:04: model execution success 6268298.desched1
 ---------------------------------------------------
2024-10-04 05:43:04: case.run success 6268298.desched1
 ---------------------------------------------------
2024-10-04 05:43:27: st_archive starting 6268299.desched1
 ---------------------------------------------------
2024-10-04 05:58:30: st_archive success 6268299.desched1
 ---------------------------------------------------
2024-10-04 05:58:31: case.submit starting 6269092.desched1
 ---------------------------------------------------
2024-10-04 05:58:31: case.submit success 6269092.desched1
 ---------------------------------------------------
2024-10-04 05:58:58: case.run starting 6269091.desched1
 ---------------------------------------------------
2024-10-04 05:59:18: model execution starting 6269091.desched1
 ---------------------------------------------------
2024-10-04 11:30:50: model execution success 6269091.desched1
 ---------------------------------------------------
2024-10-04 11:30:51: case.run success 6269091.desched1
 ---------------------------------------------------
2024-10-04 11:31:19: st_archive starting 6269092.desched1
 ---------------------------------------------------
2024-10-04 13:55:10: st_archive starting 
 ---------------------------------------------------
2024-10-04 14:20:00: st_archive success 
 ---------------------------------------------------
2024-10-04 14:22:09: case.submit starting 6272111.desched1
 ---------------------------------------------------
2024-10-04 14:22:09: case.submit success 6272111.desched1
 ---------------------------------------------------
2024-10-04 14:58:19: case.run starting 6272110.desched1
 ---------------------------------------------------
2024-10-04 14:58:48: model execution starting 6272110.desched1
 ---------------------------------------------------
2024-10-04 20:17:50: model execution success 6272110.desched1
 ---------------------------------------------------
2024-10-04 20:17:50: case.run success 6272110.desched1
 ---------------------------------------------------
2024-10-04 20:18:13: st_archive starting 6272111.desched1
 ---------------------------------------------------
2024-10-04 20:34:50: st_archive success 6272111.desched1
 ---------------------------------------------------
2024-10-04 20:34:52: case.submit starting 6273668.desched1
 ---------------------------------------------------
2024-10-04 20:34:52: case.submit success 6273668.desched1
 ---------------------------------------------------
2024-10-04 20:35:29: case.run starting 6273667.desched1
 ---------------------------------------------------
2024-10-04 20:35:44: model execution starting 6273667.desched1
 ---------------------------------------------------
2024-10-05 01:54:34: model execution success 6273667.desched1
 ---------------------------------------------------
2024-10-05 01:54:34: case.run success 6273667.desched1
 ---------------------------------------------------
2024-10-05 01:54:54: st_archive starting 6273668.desched1
 ---------------------------------------------------
2024-10-05 02:03:14: st_archive success 6273668.desched1
 ---------------------------------------------------
2024-10-05 02:03:15: case.submit starting 6274685.desched1
 ---------------------------------------------------
2024-10-05 02:03:15: case.submit success 6274685.desched1
 ---------------------------------------------------
2024-10-05 02:03:35: case.run starting 6274684.desched1
 ---------------------------------------------------
2024-10-05 02:03:42: model execution starting 6274684.desched1
 ---------------------------------------------------
2024-10-05 07:07:42: model execution success 6274684.desched1
 ---------------------------------------------------
2024-10-05 07:07:42: case.run success 6274684.desched1
 ---------------------------------------------------
2024-10-05 07:07:57: st_archive starting 6274685.desched1
 ---------------------------------------------------
2024-10-05 07:18:46: st_archive success 6274685.desched1
 ---------------------------------------------------
2024-10-05 07:18:47: case.submit starting 6275333.desched1
 ---------------------------------------------------
2024-10-05 07:18:47: case.submit success 6275333.desched1
 ---------------------------------------------------
2024-10-05 07:19:15: case.run starting 6275332.desched1
 ---------------------------------------------------
2024-10-05 07:19:24: model execution starting 6275332.desched1
 ---------------------------------------------------
2024-10-05 12:29:03: model execution success 6275332.desched1
 ---------------------------------------------------
2024-10-05 12:29:03: case.run success 6275332.desched1
 ---------------------------------------------------
2024-10-05 12:29:18: st_archive starting 6275333.desched1
 ---------------------------------------------------
2024-10-05 12:42:12: st_archive success 6275333.desched1
 ---------------------------------------------------
2024-10-05 12:42:13: case.submit starting 6276108.desched1
 ---------------------------------------------------
2024-10-05 12:42:13: case.submit success 6276108.desched1
 ---------------------------------------------------
2024-10-05 12:42:30: case.run starting 6276107.desched1
 ---------------------------------------------------
2024-10-05 12:42:37: model execution starting 6276107.desched1
 ---------------------------------------------------
2024-10-05 17:48:10: model execution success 6276107.desched1
 ---------------------------------------------------
2024-10-05 17:48:10: case.run success 6276107.desched1
 ---------------------------------------------------
2024-10-05 17:48:30: st_archive starting 6276108.desched1
 ---------------------------------------------------
2024-10-05 18:00:45: st_archive success 6276108.desched1
 ---------------------------------------------------
2024-10-05 18:00:47: case.submit starting 6276800.desched1
 ---------------------------------------------------
2024-10-05 18:00:47: case.submit success 6276800.desched1
 ---------------------------------------------------
2024-10-05 18:01:02: case.run starting 6276799.desched1
 ---------------------------------------------------
2024-10-05 18:01:08: model execution starting 6276799.desched1
 ---------------------------------------------------
2024-10-05 23:14:12: model execution success 6276799.desched1
 ---------------------------------------------------
2024-10-05 23:14:12: case.run success 6276799.desched1
 ---------------------------------------------------
2024-10-05 23:14:39: st_archive starting 6276800.desched1
 ---------------------------------------------------
2024-10-05 23:31:02: st_archive success 6276800.desched1
 ---------------------------------------------------
2024-10-05 23:31:05: case.submit starting 6278755.desched1
 ---------------------------------------------------
2024-10-05 23:31:05: case.submit success 6278755.desched1
 ---------------------------------------------------
2024-10-05 23:31:31: case.run starting 6278754.desched1
 ---------------------------------------------------
2024-10-05 23:31:37: model execution starting 6278754.desched1
 ---------------------------------------------------
2024-10-06 04:40:19: model execution success 6278754.desched1
 ---------------------------------------------------
2024-10-06 04:40:19: case.run success 6278754.desched1
 ---------------------------------------------------
2024-10-06 04:40:38: st_archive starting 6278755.desched1
 ---------------------------------------------------
2024-10-06 04:56:38: st_archive success 6278755.desched1
 ---------------------------------------------------
2024-10-06 04:56:41: case.submit starting 6279686.desched1
 ---------------------------------------------------
2024-10-06 04:56:41: case.submit success 6279686.desched1
 ---------------------------------------------------
2024-10-06 04:57:00: case.run starting 6279685.desched1
 ---------------------------------------------------
2024-10-06 04:57:17: model execution starting 6279685.desched1
 ---------------------------------------------------
2024-10-06 09:31:17: xmlchange success <command> ./xmlchange JOB_PRIORITY=regular  </command>
 ---------------------------------------------------
2024-10-06 10:09:43: model execution success 6279685.desched1
 ---------------------------------------------------
2024-10-06 10:09:43: case.run success 6279685.desched1
 ---------------------------------------------------
2024-10-06 10:10:04: st_archive starting 6279686.desched1
 ---------------------------------------------------
2024-10-06 10:17:51: st_archive success 6279686.desched1
 ---------------------------------------------------
2024-10-06 10:17:54: case.submit starting 6280018.desched1
 ---------------------------------------------------
2024-10-06 10:17:54: case.submit success 6280018.desched1
 ---------------------------------------------------
2024-10-06 10:18:12: case.run starting 6280016.desched1
 ---------------------------------------------------
2024-10-06 10:18:16: model execution starting 6280016.desched1
 ---------------------------------------------------
2024-10-06 15:21:33: model execution success 6280016.desched1
 ---------------------------------------------------
2024-10-06 15:21:33: case.run success 6280016.desched1
 ---------------------------------------------------
2024-10-06 15:22:00: st_archive starting 6280018.desched1
 ---------------------------------------------------
2024-10-06 15:33:17: st_archive success 6280018.desched1
 ---------------------------------------------------
2024-10-06 15:33:20: case.submit starting 6280606.desched1
 ---------------------------------------------------
2024-10-06 15:33:20: case.submit success 6280606.desched1
 ---------------------------------------------------
2024-10-06 15:33:44: case.run starting 6280605.desched1
 ---------------------------------------------------
2024-10-06 15:34:07: model execution starting 6280605.desched1
 ---------------------------------------------------
2024-10-06 20:46:50: model execution success 6280605.desched1
 ---------------------------------------------------
2024-10-06 20:46:50: case.run success 6280605.desched1
 ---------------------------------------------------
2024-10-06 20:47:19: st_archive starting 6280606.desched1
 ---------------------------------------------------
2024-10-06 20:56:57: st_archive success 6280606.desched1
 ---------------------------------------------------
2024-10-06 20:56:58: case.submit starting 6282404.desched1
 ---------------------------------------------------
2024-10-06 20:56:58: case.submit success 6282404.desched1
 ---------------------------------------------------
2024-10-06 20:57:18: case.run starting 6282403.desched1
 ---------------------------------------------------
2024-10-06 20:57:26: model execution starting 6282403.desched1
 ---------------------------------------------------
2024-10-07 02:16:11: model execution success 6282403.desched1
 ---------------------------------------------------
2024-10-07 02:16:11: case.run success 6282403.desched1
 ---------------------------------------------------
2024-10-07 02:16:29: st_archive starting 6282404.desched1
 ---------------------------------------------------
2024-10-07 02:31:48: st_archive success 6282404.desched1
 ---------------------------------------------------
2024-10-07 02:31:48: case.submit starting 6284942.desched1
 ---------------------------------------------------
2024-10-07 02:31:48: case.submit success 6284942.desched1
 ---------------------------------------------------
2024-10-07 02:32:16: case.run starting 6284941.desched1
 ---------------------------------------------------
2024-10-07 02:32:34: model execution starting 6284941.desched1
 ---------------------------------------------------
2024-10-07 07:51:02: model execution success 6284941.desched1
 ---------------------------------------------------
2024-10-07 07:51:02: case.run success 6284941.desched1
 ---------------------------------------------------
2024-10-07 07:51:18: st_archive starting 6284942.desched1
 ---------------------------------------------------
2024-10-07 08:04:32: st_archive success 6284942.desched1
 ---------------------------------------------------
2024-10-07 08:04:34: case.submit starting 6285495.desched1
 ---------------------------------------------------
2024-10-07 08:04:34: case.submit success 6285495.desched1
 ---------------------------------------------------
2024-10-07 08:04:51: case.run starting 6285494.desched1
 ---------------------------------------------------
2024-10-07 08:04:57: model execution starting 6285494.desched1
 ---------------------------------------------------
2024-10-07 13:13:40: model execution success 6285494.desched1
 ---------------------------------------------------
2024-10-07 13:13:52: case.run success 6285494.desched1
 ---------------------------------------------------
2024-10-07 13:14:36: st_archive starting 6285495.desched1
 ---------------------------------------------------
2024-10-07 13:32:23: st_archive success 6285495.desched1
 ---------------------------------------------------
2024-10-07 13:32:28: case.submit starting 6287701.desched1
 ---------------------------------------------------
2024-10-07 13:32:28: case.submit success 6287701.desched1
 ---------------------------------------------------
2024-10-07 17:20:30: case.run starting 6287700.desched1
 ---------------------------------------------------
2024-10-07 17:20:40: model execution starting 6287700.desched1
 ---------------------------------------------------
2024-10-07 22:30:47: model execution success 6287700.desched1
 ---------------------------------------------------
2024-10-07 22:30:47: case.run success 6287700.desched1
 ---------------------------------------------------
2024-10-07 22:32:09: st_archive starting 6287701.desched1
 ---------------------------------------------------
2024-10-07 22:38:24: st_archive success 6287701.desched1
 ---------------------------------------------------
2024-10-07 22:38:26: case.submit starting 6292449.desched1
 ---------------------------------------------------
2024-10-07 22:38:26: case.submit success 6292449.desched1
 ---------------------------------------------------
2024-10-08 01:27:22: case.run starting 6292448.desched1
 ---------------------------------------------------
2024-10-08 01:28:19: model execution starting 6292448.desched1
 ---------------------------------------------------
2024-10-08 06:43:24: model execution success 6292448.desched1
 ---------------------------------------------------
2024-10-08 06:43:24: case.run success 6292448.desched1
 ---------------------------------------------------
2024-10-08 06:44:00: st_archive starting 6292449.desched1
 ---------------------------------------------------
2024-10-08 06:49:37: st_archive success 6292449.desched1
 ---------------------------------------------------
2024-10-08 06:49:37: case.submit starting 6293898.desched1
 ---------------------------------------------------
2024-10-08 06:49:37: case.submit success 6293898.desched1
 ---------------------------------------------------
2024-10-08 09:03:49: case.run starting 6293897.desched1
 ---------------------------------------------------
2024-10-08 09:03:56: model execution starting 6293897.desched1
 ---------------------------------------------------
2024-10-08 14:10:11: model execution success 6293897.desched1
 ---------------------------------------------------
2024-10-08 14:10:11: case.run success 6293897.desched1
 ---------------------------------------------------
2024-10-08 14:12:59: st_archive starting 6293898.desched1
 ---------------------------------------------------
2024-10-08 14:21:31: st_archive success 6293898.desched1
 ---------------------------------------------------
2024-10-08 14:21:39: case.submit starting 6296309.desched1
 ---------------------------------------------------
2024-10-08 14:21:39: case.submit success 6296309.desched1
 ---------------------------------------------------
2024-10-08 14:26:57: case.submit starting 6296332.desched1
 ---------------------------------------------------
2024-10-08 14:26:57: case.submit success 6296332.desched1
 ---------------------------------------------------
2024-10-08 17:04:59: case.run starting 6296331.desched1
 ---------------------------------------------------
2024-10-08 17:05:03: model execution starting 6296331.desched1
 ---------------------------------------------------
2024-10-08 17:07:47: model execution success 6296331.desched1
 ---------------------------------------------------
2024-10-08 17:07:47: case.run error 
ERROR: Model did not complete - see /glade/derecho/scratch/hannay/f.e30_cam6_4_036.FLTHIST.ne120_L58.001/run/med.log.6296331.desched1.241008-170459 
 
 ---------------------------------------------------
2024-10-09 08:36:20: xmlchange success <command> ./xmlchange JOB_PRIORITY=premium  </command>
 ---------------------------------------------------
2024-10-09 08:36:29: case.submit starting 6301719.desched1
 ---------------------------------------------------
2024-10-09 08:36:29: case.submit success 6301719.desched1
 ---------------------------------------------------
2024-10-09 08:36:45: case.run starting 6301718.desched1
 ---------------------------------------------------
2024-10-09 08:36:50: model execution starting 6301718.desched1
 ---------------------------------------------------
2024-10-09 08:39:35: model execution success 6301718.desched1
 ---------------------------------------------------
2024-10-09 08:39:35: case.run error 
ERROR: Model did not complete - see /glade/derecho/scratch/hannay/f.e30_cam6_4_036.FLTHIST.ne120_L58.001/run/med.log.6301718.desched1.241009-083645 
 
 ---------------------------------------------------
2024-10-09 08:43:31: case.submit starting 6301730.desched1
 ---------------------------------------------------
2024-10-09 08:43:31: case.submit success 6301730.desched1
 ---------------------------------------------------
2024-10-09 08:43:44: case.run starting 6301729.desched1
 ---------------------------------------------------
2024-10-09 08:43:48: model execution starting 6301729.desched1
 ---------------------------------------------------
2024-10-09 13:40:43: model execution success 6301729.desched1
 ---------------------------------------------------
2024-10-09 13:40:43: case.run success 6301729.desched1
 ---------------------------------------------------
2024-10-09 14:09:02: st_archive starting 
 ---------------------------------------------------
2024-10-09 14:24:24: st_archive success 
 ---------------------------------------------------
2024-10-09 14:29:35: case.submit starting 6304216.desched1
 ---------------------------------------------------
2024-10-09 14:29:35: case.submit success 6304216.desched1
 ---------------------------------------------------
2024-10-09 14:51:19: case.run starting 6304214.desched1
 ---------------------------------------------------
2024-10-09 14:51:24: model execution starting 6304214.desched1
 ---------------------------------------------------
2024-10-09 20:00:33: model execution success 6304214.desched1
 ---------------------------------------------------
2024-10-09 20:00:33: case.run success 6304214.desched1
 ---------------------------------------------------
2024-10-09 20:00:54: st_archive starting 6304216.desched1
 ---------------------------------------------------
2024-10-09 20:10:38: st_archive success 6304216.desched1
 ---------------------------------------------------
2024-10-09 20:10:38: case.submit starting 6307572.desched1
 ---------------------------------------------------
2024-10-09 20:10:38: case.submit success 6307572.desched1
 ---------------------------------------------------
2024-10-09 20:21:22: case.run starting 6307571.desched1
 ---------------------------------------------------
2024-10-09 20:21:27: model execution starting 6307571.desched1
 ---------------------------------------------------
2024-10-10 01:25:25: model execution success 6307571.desched1
 ---------------------------------------------------
2024-10-10 01:25:25: case.run success 6307571.desched1
 ---------------------------------------------------
2024-10-10 01:25:43: st_archive starting 6307572.desched1
 ---------------------------------------------------
2024-10-10 01:36:56: st_archive success 6307572.desched1
 ---------------------------------------------------
2024-10-10 01:36:56: case.submit starting 6308663.desched1
 ---------------------------------------------------
2024-10-10 01:36:56: case.submit success 6308663.desched1
 ---------------------------------------------------
2024-10-10 01:37:13: case.run starting 6308662.desched1
 ---------------------------------------------------
2024-10-10 01:37:19: model execution starting 6308662.desched1
 ---------------------------------------------------
2024-10-10 06:45:23: model execution success 6308662.desched1
 ---------------------------------------------------
2024-10-10 06:45:23: case.run success 6308662.desched1
 ---------------------------------------------------
2024-10-10 06:45:45: st_archive starting 6308663.desched1
 ---------------------------------------------------
2024-10-10 06:55:29: st_archive success 6308663.desched1
 ---------------------------------------------------
2024-10-10 06:55:29: case.submit starting 6309129.desched1
 ---------------------------------------------------
2024-10-10 06:55:29: case.submit success 6309129.desched1
 ---------------------------------------------------
2024-10-10 06:55:50: case.run starting 6309128.desched1
 ---------------------------------------------------
2024-10-10 06:55:59: model execution starting 6309128.desched1
 ---------------------------------------------------
2024-10-10 10:34:50: xmlchange success <command> ./xmlchange --append CAM_CONFIG_OPTS=-rad rrtmgp  </command>
 ---------------------------------------------------
2024-10-10 10:34:50: xmlchange success <command> ./xmlchange NTASKS=6144  </command>
 ---------------------------------------------------
2024-10-10 10:34:51: case.setup starting 
 ---------------------------------------------------
2024-10-10 10:34:56: case.setup success 
 ---------------------------------------------------
2024-10-10 10:35:05: xmlchange success <command> ./xmlchange RUN_STARTDATE=2000-01-01  </command>
 ---------------------------------------------------
2024-10-10 15:11:43: model execution success 6309128.desched1
 ---------------------------------------------------
2024-10-10 15:11:43: case.run success 6309128.desched1
 ---------------------------------------------------
2024-10-10 15:19:11: st_archive starting 
 ---------------------------------------------------
2024-10-10 15:29:33: st_archive success 
 ---------------------------------------------------
2024-10-10 15:29:34: case.submit starting 
 ---------------------------------------------------
2024-10-10 15:29:34: case.submit error 
ERROR: For your changes to take effect, run:
./case.build --clean-all
./case.build
 ---------------------------------------------------
2024-10-10 15:55:35: xmlchange success <command> ./xmlchange CAM_CONFIG_OPTS=-phys cam7 -nlev 58 -model_top lt -rad rrtmgp  </command>
 ---------------------------------------------------
2024-10-10 15:55:41: case.build starting 
 ---------------------------------------------------
2024-10-10 15:55:42: case.build error 
ERROR: For your changes to take effect, run:
./case.build --clean-all
./case.build
 ---------------------------------------------------
2024-10-10 15:55:54: case.build starting 
 ---------------------------------------------------
2024-10-10 15:55:54: case.build error 
ERROR: For your changes to take effect, run:
./case.build --clean-all
./case.build
 ---------------------------------------------------
2024-10-10 15:56:18: case.build starting 
 ---------------------------------------------------
2024-10-10 15:56:19: case.build error 
ERROR: For your changes to take effect, run:
./case.build --clean-all
./case.build
 ---------------------------------------------------
2024-10-10 15:56:51: case.build starting 
 ---------------------------------------------------
2024-10-10 15:57:56: case.build success 
 ---------------------------------------------------