2024-06-21 11:06:59: xmlchange success <command> ./xmlchange --append CAM_CONFIG_OPTS=-rad rrtmgp  </command>
 ---------------------------------------------------
2024-06-21 11:06:59: case.setup starting 
 ---------------------------------------------------
2024-06-21 11:07:03: case.setup success 
 ---------------------------------------------------
2024-06-21 11:07:15: xmlchange success <command> ./xmlchange MOM6_VERTICAL_GRID=hycom1  </command>
 ---------------------------------------------------
2024-06-21 11:07:35: case.build starting 
 ---------------------------------------------------
2024-06-21 11:08:34: case.build starting 
 ---------------------------------------------------
2024-06-21 11:08:49: case.build error 
ERROR: /glade/work/hannay/cesm_tags/cesm2_3_alpha17f/cime/CIME/build_scripts/buildlib.mct FAILED, cat /glade/derecho/scratch/hannay/b.e23_alpha17f.BLT1850.ne30_t232.099/bld/mct.bldlog.240621-110735
 ---------------------------------------------------
2024-06-21 11:15:29: case.build starting 
 ---------------------------------------------------
2024-06-21 11:20:48: case.build error 
ERROR: /glade/work/hannay/cesm_tags/cesm2_3_alpha17f/components/cdeps/cime_config/buildlib FAILED, cat /glade/derecho/scratch/hannay/b.e23_alpha17f.BLT1850.ne30_t232.099/bld/CDEPS.bldlog.240621-111530
 ---------------------------------------------------
2024-06-21 11:23:44: build.clean starting 
 ---------------------------------------------------
2024-06-21 11:23:47: build.clean success 
 ---------------------------------------------------
2024-06-21 11:23:57: case.build starting 
 ---------------------------------------------------
2024-06-21 11:38:52: case.build success 
 ---------------------------------------------------
2024-06-21 13:38:44: xmlchange success <command> ./xmlchange MOM6_VERTICAL_GRID=hycom1  </command>
 ---------------------------------------------------
2024-06-21 13:42:05: case.build starting 
 ---------------------------------------------------
2024-06-21 13:43:47: case.build success 
 ---------------------------------------------------
2024-06-21 13:43:50: xmlchange success <command> ./xmlchange PROJECT=CESM0023,RESUBMIT=10,STOP_N=2,STOP_OPTION=nyears  </command>
 ---------------------------------------------------
2024-06-21 13:43:50: xmlchange success <command> ./xmlchange CHARGE_ACCOUNT=CESM0023  </command>
 ---------------------------------------------------
2024-06-21 13:43:51: xmlchange success <command> ./xmlchange REST_OPTION=nyears,REST_N=1  </command>
 ---------------------------------------------------
2024-06-21 13:43:51: xmlchange success <command> ./xmlchange JOB_WALLCLOCK_TIME=12:00:00 --subgroup case.run  </command>
 ---------------------------------------------------
2024-06-21 13:44:05: case.submit starting 4916461.desched1
 ---------------------------------------------------
2024-06-21 13:44:05: case.submit success 4916461.desched1
 ---------------------------------------------------
2024-06-21 13:44:53: case.run starting 4916460.desched1
 ---------------------------------------------------
2024-06-21 13:45:10: model execution starting 4916460.desched1
 ---------------------------------------------------
2024-06-21 18:29:23: model execution success 4916460.desched1
 ---------------------------------------------------
2024-06-21 18:29:23: case.run success 4916460.desched1
 ---------------------------------------------------
2024-06-21 18:29:44: st_archive starting 4916461.desched1
 ---------------------------------------------------
2024-06-21 18:30:16: st_archive success 4916461.desched1
 ---------------------------------------------------
2024-06-21 18:30:16: case.submit starting 4919932.desched1
 ---------------------------------------------------
2024-06-21 18:30:16: case.submit success 4919932.desched1
 ---------------------------------------------------
2024-06-21 18:30:45: case.run starting 4919931.desched1
 ---------------------------------------------------
2024-06-21 18:31:06: model execution starting 4919931.desched1
 ---------------------------------------------------
2024-06-21 23:15:32: model execution success 4919931.desched1
 ---------------------------------------------------
2024-06-21 23:15:32: case.run success 4919931.desched1
 ---------------------------------------------------
2024-06-21 23:15:53: st_archive starting 4919932.desched1
 ---------------------------------------------------
2024-06-21 23:16:32: st_archive success 4919932.desched1
 ---------------------------------------------------
2024-06-21 23:16:32: case.submit starting 4921582.desched1
 ---------------------------------------------------
2024-06-21 23:16:32: case.submit success 4921582.desched1
 ---------------------------------------------------
2024-06-21 23:17:16: case.run starting 4921581.desched1
 ---------------------------------------------------
2024-06-21 23:17:28: model execution starting 4921581.desched1
 ---------------------------------------------------
2024-06-22 04:00:18: model execution success 4921581.desched1
 ---------------------------------------------------
2024-06-22 04:00:18: case.run success 4921581.desched1
 ---------------------------------------------------
2024-06-22 04:00:39: st_archive starting 4921582.desched1
 ---------------------------------------------------
2024-06-22 04:01:18: st_archive success 4921582.desched1
 ---------------------------------------------------
2024-06-22 04:01:18: case.submit starting 4922513.desched1
 ---------------------------------------------------
2024-06-22 04:01:18: case.submit success 4922513.desched1
 ---------------------------------------------------
2024-06-22 04:01:46: case.run starting 4922512.desched1
 ---------------------------------------------------
2024-06-22 04:01:52: model execution starting 4922512.desched1
 ---------------------------------------------------
2024-06-22 08:43:23: model execution success 4922512.desched1
 ---------------------------------------------------
2024-06-22 08:43:23: case.run success 4922512.desched1
 ---------------------------------------------------
2024-06-22 08:43:45: st_archive starting 4922513.desched1
 ---------------------------------------------------
2024-06-22 08:44:26: st_archive success 4922513.desched1
 ---------------------------------------------------
2024-06-22 08:44:27: case.submit starting 4924352.desched1
 ---------------------------------------------------
2024-06-22 08:44:27: case.submit success 4924352.desched1
 ---------------------------------------------------
2024-06-22 08:45:04: case.run starting 4924351.desched1
 ---------------------------------------------------
2024-06-22 08:45:16: model execution starting 4924351.desched1
 ---------------------------------------------------
2024-06-22 13:26:06: model execution success 4924351.desched1
 ---------------------------------------------------
2024-06-22 13:26:06: case.run success 4924351.desched1
 ---------------------------------------------------
2024-06-22 13:26:27: st_archive starting 4924352.desched1
 ---------------------------------------------------
2024-06-22 13:27:02: st_archive success 4924352.desched1
 ---------------------------------------------------
2024-06-22 13:27:05: case.submit starting 4926578.desched1
 ---------------------------------------------------
2024-06-22 13:27:05: case.submit success 4926578.desched1
 ---------------------------------------------------
2024-06-22 13:27:32: case.run starting 4926577.desched1
 ---------------------------------------------------
2024-06-22 13:27:37: model execution starting 4926577.desched1
 ---------------------------------------------------
2024-06-22 18:08:01: model execution success 4926577.desched1
 ---------------------------------------------------
2024-06-22 18:08:01: case.run success 4926577.desched1
 ---------------------------------------------------
2024-06-22 18:08:21: st_archive starting 4926578.desched1
 ---------------------------------------------------
2024-06-22 18:09:00: st_archive success 4926578.desched1
 ---------------------------------------------------
2024-06-22 18:09:01: case.submit starting 4927484.desched1
 ---------------------------------------------------
2024-06-22 18:09:01: case.submit success 4927484.desched1
 ---------------------------------------------------
2024-06-22 18:09:29: case.run starting 4927483.desched1
 ---------------------------------------------------
2024-06-22 18:09:42: model execution starting 4927483.desched1
 ---------------------------------------------------
2024-06-22 22:49:57: model execution success 4927483.desched1
 ---------------------------------------------------
2024-06-22 22:49:57: case.run success 4927483.desched1
 ---------------------------------------------------
2024-06-22 22:50:16: st_archive starting 4927484.desched1
 ---------------------------------------------------
2024-06-22 22:50:56: st_archive success 4927484.desched1
 ---------------------------------------------------
2024-06-22 22:50:57: case.submit starting 4928983.desched1
 ---------------------------------------------------
2024-06-22 22:50:57: case.submit success 4928983.desched1
 ---------------------------------------------------
2024-06-22 22:51:14: case.run starting 4928982.desched1
 ---------------------------------------------------
2024-06-22 22:51:19: model execution starting 4928982.desched1
 ---------------------------------------------------
2024-06-23 03:29:57: model execution success 4928982.desched1
 ---------------------------------------------------
2024-06-23 03:29:57: case.run success 4928982.desched1
 ---------------------------------------------------
2024-06-23 03:30:14: st_archive starting 4928983.desched1
 ---------------------------------------------------
2024-06-23 03:30:45: st_archive success 4928983.desched1
 ---------------------------------------------------
2024-06-23 03:30:45: case.submit starting 4929628.desched1
 ---------------------------------------------------
2024-06-23 03:30:45: case.submit success 4929628.desched1
 ---------------------------------------------------
2024-06-23 03:31:04: case.run starting 4929627.desched1
 ---------------------------------------------------
2024-06-23 03:31:10: model execution starting 4929627.desched1
 ---------------------------------------------------
2024-06-23 08:10:26: model execution success 4929627.desched1
 ---------------------------------------------------
2024-06-23 08:10:26: case.run success 4929627.desched1
 ---------------------------------------------------
2024-06-23 08:10:46: st_archive starting 4929628.desched1
 ---------------------------------------------------
2024-06-23 08:11:24: st_archive success 4929628.desched1
 ---------------------------------------------------
2024-06-23 08:11:26: case.submit starting 4930175.desched1
 ---------------------------------------------------
2024-06-23 08:11:26: case.submit success 4930175.desched1
 ---------------------------------------------------
2024-06-23 08:11:40: case.run starting 4930174.desched1
 ---------------------------------------------------
2024-06-23 08:11:47: model execution starting 4930174.desched1
 ---------------------------------------------------
2024-06-23 12:52:26: model execution success 4930174.desched1
 ---------------------------------------------------
2024-06-23 12:52:26: case.run success 4930174.desched1
 ---------------------------------------------------
2024-06-23 12:52:49: st_archive starting 4930175.desched1
 ---------------------------------------------------
2024-06-23 12:53:31: st_archive success 4930175.desched1
 ---------------------------------------------------
2024-06-23 12:53:34: case.submit starting 4931398.desched1
 ---------------------------------------------------
2024-06-23 12:53:34: case.submit success 4931398.desched1
 ---------------------------------------------------
2024-06-23 12:53:49: case.run starting 4931395.desched1
 ---------------------------------------------------
2024-06-23 12:53:55: model execution starting 4931395.desched1
 ---------------------------------------------------
2024-06-23 17:33:51: model execution success 4931395.desched1
 ---------------------------------------------------
2024-06-23 17:33:51: case.run success 4931395.desched1
 ---------------------------------------------------
2024-06-23 17:34:07: st_archive starting 4931398.desched1
 ---------------------------------------------------
2024-06-23 17:34:37: st_archive success 4931398.desched1
 ---------------------------------------------------
2024-06-24 09:11:33: xmlchange success <command> ./xmlchange RESUBMIT=50  </command>
 ---------------------------------------------------
2024-06-24 09:11:49: case.submit starting 4936250.desched1
 ---------------------------------------------------
2024-06-24 09:11:49: case.submit success 4936250.desched1
 ---------------------------------------------------
2024-06-24 09:12:13: case.run starting 4936249.desched1
 ---------------------------------------------------
2024-06-24 09:12:25: model execution starting 4936249.desched1
 ---------------------------------------------------
2024-06-24 14:14:37: model execution success 4936249.desched1
 ---------------------------------------------------
2024-06-24 14:14:38: case.run success 4936249.desched1
 ---------------------------------------------------
2024-06-24 14:15:04: st_archive starting 4936250.desched1
 ---------------------------------------------------
2024-06-24 14:15:40: st_archive success 4936250.desched1
 ---------------------------------------------------
2024-06-24 14:15:40: case.submit starting 4939368.desched1
 ---------------------------------------------------
2024-06-24 14:15:40: case.submit success 4939368.desched1
 ---------------------------------------------------
2024-06-24 14:16:21: case.run starting 4939367.desched1
 ---------------------------------------------------
2024-06-24 14:16:35: model execution starting 4939367.desched1
 ---------------------------------------------------
2024-06-24 18:59:00: model execution success 4939367.desched1
 ---------------------------------------------------
2024-06-24 18:59:00: case.run success 4939367.desched1
 ---------------------------------------------------
2024-06-24 18:59:22: st_archive starting 4939368.desched1
 ---------------------------------------------------
2024-06-24 18:59:53: st_archive success 4939368.desched1
 ---------------------------------------------------
2024-06-24 18:59:53: case.submit starting 4941163.desched1
 ---------------------------------------------------
2024-06-24 18:59:53: case.submit success 4941163.desched1
 ---------------------------------------------------
2024-06-24 19:00:13: case.run starting 4941162.desched1
 ---------------------------------------------------
2024-06-24 19:00:20: model execution starting 4941162.desched1
 ---------------------------------------------------
2024-06-24 23:42:16: model execution success 4941162.desched1
 ---------------------------------------------------
2024-06-24 23:42:16: case.run success 4941162.desched1
 ---------------------------------------------------
2024-06-24 23:43:06: st_archive starting 4941163.desched1
 ---------------------------------------------------
2024-06-24 23:43:36: st_archive success 4941163.desched1
 ---------------------------------------------------
2024-06-24 23:43:37: case.submit starting 4943730.desched1
 ---------------------------------------------------
2024-06-24 23:43:37: case.submit success 4943730.desched1
 ---------------------------------------------------
2024-06-24 23:44:14: case.run starting 4943729.desched1
 ---------------------------------------------------
2024-06-24 23:44:28: model execution starting 4943729.desched1
 ---------------------------------------------------
2024-06-25 04:49:06: model execution success 4943729.desched1
 ---------------------------------------------------
2024-06-25 04:49:06: case.run success 4943729.desched1
 ---------------------------------------------------
2024-06-25 04:49:23: st_archive starting 4943730.desched1
 ---------------------------------------------------
2024-06-25 04:49:56: st_archive success 4943730.desched1
 ---------------------------------------------------
2024-06-25 04:49:56: case.submit starting 4944281.desched1
 ---------------------------------------------------
2024-06-25 04:49:56: case.submit success 4944281.desched1
 ---------------------------------------------------
2024-06-25 04:50:13: case.run starting 4944280.desched1
 ---------------------------------------------------
2024-06-25 04:50:19: model execution starting 4944280.desched1
 ---------------------------------------------------
2024-06-25 09:33:24: model execution success 4944280.desched1
 ---------------------------------------------------
2024-06-25 09:33:24: case.run success 4944280.desched1
 ---------------------------------------------------
2024-06-25 09:33:47: st_archive starting 4944281.desched1
 ---------------------------------------------------
2024-06-25 09:34:24: st_archive success 4944281.desched1
 ---------------------------------------------------
2024-06-25 09:34:25: case.submit starting 4945770.desched1
 ---------------------------------------------------
2024-06-25 09:34:25: case.submit success 4945770.desched1
 ---------------------------------------------------
2024-06-25 09:34:42: case.run starting 4945769.desched1
 ---------------------------------------------------
2024-06-25 09:34:51: model execution starting 4945769.desched1
 ---------------------------------------------------
2024-06-25 14:16:35: model execution success 4945769.desched1
 ---------------------------------------------------
2024-06-25 14:16:35: case.run success 4945769.desched1
 ---------------------------------------------------
2024-06-25 14:16:58: st_archive starting 4945770.desched1
 ---------------------------------------------------
2024-06-25 14:17:31: st_archive success 4945770.desched1
 ---------------------------------------------------
2024-06-25 14:17:32: case.submit starting 4949563.desched1
 ---------------------------------------------------
2024-06-25 14:17:32: case.submit success 4949563.desched1
 ---------------------------------------------------
2024-06-25 14:17:54: case.run starting 4949562.desched1
 ---------------------------------------------------
2024-06-25 14:18:03: model execution starting 4949562.desched1
 ---------------------------------------------------
2024-06-25 19:00:10: model execution success 4949562.desched1
 ---------------------------------------------------
2024-06-25 19:00:10: case.run success 4949562.desched1
 ---------------------------------------------------
2024-06-25 19:00:32: st_archive starting 4949563.desched1
 ---------------------------------------------------
2024-06-25 19:01:08: st_archive success 4949563.desched1
 ---------------------------------------------------
2024-06-25 19:01:08: case.submit starting 4952220.desched1
 ---------------------------------------------------
2024-06-25 19:01:08: case.submit success 4952220.desched1
 ---------------------------------------------------
2024-06-25 19:01:34: case.run starting 4952219.desched1
 ---------------------------------------------------
2024-06-25 19:01:50: model execution starting 4952219.desched1
 ---------------------------------------------------
2024-06-25 23:44:27: model execution success 4952219.desched1
 ---------------------------------------------------
2024-06-25 23:44:27: case.run success 4952219.desched1
 ---------------------------------------------------
2024-06-25 23:44:45: st_archive starting 4952220.desched1
 ---------------------------------------------------
2024-06-25 23:45:25: st_archive success 4952220.desched1
 ---------------------------------------------------
2024-06-25 23:45:25: case.submit starting 4953590.desched1
 ---------------------------------------------------
2024-06-25 23:45:25: case.submit success 4953590.desched1
 ---------------------------------------------------
2024-06-25 23:45:46: case.run starting 4953589.desched1
 ---------------------------------------------------
2024-06-25 23:45:56: model execution starting 4953589.desched1
 ---------------------------------------------------
2024-06-26 04:27:10: model execution success 4953589.desched1
 ---------------------------------------------------
2024-06-26 04:27:10: case.run success 4953589.desched1
 ---------------------------------------------------
2024-06-26 04:27:24: st_archive starting 4953590.desched1
 ---------------------------------------------------
2024-06-26 04:28:01: st_archive success 4953590.desched1
 ---------------------------------------------------
2024-06-26 04:28:01: case.submit starting 4954096.desched1
 ---------------------------------------------------
2024-06-26 04:28:01: case.submit success 4954096.desched1
 ---------------------------------------------------
2024-06-26 04:28:19: case.run starting 4954095.desched1
 ---------------------------------------------------
2024-06-26 04:28:28: model execution starting 4954095.desched1
 ---------------------------------------------------
2024-06-26 09:09:19: model execution success 4954095.desched1
 ---------------------------------------------------
2024-06-26 09:09:19: case.run success 4954095.desched1
 ---------------------------------------------------
2024-06-26 09:09:38: st_archive starting 4954096.desched1
 ---------------------------------------------------
2024-06-26 09:10:13: st_archive success 4954096.desched1
 ---------------------------------------------------
2024-06-26 09:10:14: case.submit starting 4955388.desched1
 ---------------------------------------------------
2024-06-26 09:10:14: case.submit success 4955388.desched1
 ---------------------------------------------------
2024-06-26 09:10:40: case.run starting 4955387.desched1
 ---------------------------------------------------
2024-06-26 09:10:48: model execution starting 4955387.desched1
 ---------------------------------------------------
2024-06-26 13:53:04: model execution success 4955387.desched1
 ---------------------------------------------------
2024-06-26 13:53:04: case.run success 4955387.desched1
 ---------------------------------------------------
2024-06-26 13:53:25: st_archive starting 4955388.desched1
 ---------------------------------------------------
2024-06-26 13:54:07: st_archive success 4955388.desched1
 ---------------------------------------------------
2024-06-26 13:54:08: case.submit starting 4957861.desched1
 ---------------------------------------------------
2024-06-26 13:54:08: case.submit success 4957861.desched1
 ---------------------------------------------------
2024-06-26 13:54:36: case.run starting 4957860.desched1
 ---------------------------------------------------
2024-06-26 13:54:49: model execution starting 4957860.desched1
 ---------------------------------------------------
2024-06-26 18:37:14: model execution success 4957860.desched1
 ---------------------------------------------------
2024-06-26 18:37:15: case.run success 4957860.desched1
 ---------------------------------------------------
2024-06-26 18:37:49: st_archive starting 4957861.desched1
 ---------------------------------------------------
2024-06-26 18:38:24: st_archive success 4957861.desched1
 ---------------------------------------------------
2024-06-26 18:38:25: case.submit starting 4960359.desched1
 ---------------------------------------------------
2024-06-26 18:38:25: case.submit success 4960359.desched1
 ---------------------------------------------------
2024-06-26 18:38:51: case.run starting 4960358.desched1
 ---------------------------------------------------
2024-06-26 18:39:04: model execution starting 4960358.desched1
 ---------------------------------------------------
2024-06-26 23:26:09: model execution success 4960358.desched1
 ---------------------------------------------------
2024-06-26 23:26:09: case.run success 4960358.desched1
 ---------------------------------------------------
2024-06-26 23:26:44: st_archive starting 4960359.desched1
 ---------------------------------------------------
2024-06-26 23:27:22: st_archive success 4960359.desched1
 ---------------------------------------------------
2024-06-26 23:27:24: case.submit starting 4961263.desched1
 ---------------------------------------------------
2024-06-26 23:27:24: case.submit success 4961263.desched1
 ---------------------------------------------------
2024-06-26 23:27:45: case.run starting 4961262.desched1
 ---------------------------------------------------
2024-06-26 23:28:01: model execution starting 4961262.desched1
 ---------------------------------------------------
2024-06-27 04:13:26: model execution success 4961262.desched1
 ---------------------------------------------------
2024-06-27 04:13:26: case.run success 4961262.desched1
 ---------------------------------------------------
2024-06-27 04:13:46: st_archive starting 4961263.desched1
 ---------------------------------------------------
2024-06-27 04:14:16: st_archive success 4961263.desched1
 ---------------------------------------------------
2024-06-27 04:14:16: case.submit starting 4962147.desched1
 ---------------------------------------------------
2024-06-27 04:14:16: case.submit success 4962147.desched1
 ---------------------------------------------------
2024-06-27 04:14:30: case.run starting 4962145.desched1
 ---------------------------------------------------
2024-06-27 04:14:34: model execution starting 4962145.desched1
 ---------------------------------------------------
2024-06-27 09:00:26: model execution success 4962145.desched1
 ---------------------------------------------------
2024-06-27 09:00:26: case.run success 4962145.desched1
 ---------------------------------------------------
2024-06-27 09:00:47: st_archive starting 4962147.desched1
 ---------------------------------------------------
2024-06-27 09:01:24: st_archive success 4962147.desched1
 ---------------------------------------------------
2024-06-27 09:01:25: case.submit starting 4963572.desched1
 ---------------------------------------------------
2024-06-27 09:01:25: case.submit success 4963572.desched1
 ---------------------------------------------------
2024-06-27 09:01:47: case.run starting 4963571.desched1
 ---------------------------------------------------
2024-06-27 09:01:58: model execution starting 4963571.desched1
 ---------------------------------------------------
2024-06-27 13:43:44: model execution success 4963571.desched1
 ---------------------------------------------------
2024-06-27 13:43:45: case.run success 4963571.desched1
 ---------------------------------------------------
2024-06-27 13:44:06: st_archive starting 4963572.desched1
 ---------------------------------------------------
2024-06-27 13:44:46: st_archive success 4963572.desched1
 ---------------------------------------------------
2024-06-27 13:44:46: case.submit starting 4966114.desched1
 ---------------------------------------------------
2024-06-27 13:44:46: case.submit success 4966114.desched1
 ---------------------------------------------------
2024-06-27 13:45:03: case.run starting 4966113.desched1
 ---------------------------------------------------
2024-06-27 13:45:09: model execution starting 4966113.desched1
 ---------------------------------------------------
2024-06-27 18:26:57: model execution success 4966113.desched1
 ---------------------------------------------------
2024-06-27 18:26:58: case.run success 4966113.desched1
 ---------------------------------------------------
2024-06-27 20:39:30: st_archive starting 4966114.desched1
 ---------------------------------------------------
2024-06-27 20:40:28: st_archive success 4966114.desched1
 ---------------------------------------------------
2024-06-27 20:40:29: case.submit starting 4971139.desched1
 ---------------------------------------------------
2024-06-27 20:40:29: case.submit success 4971139.desched1
 ---------------------------------------------------
2024-06-27 20:40:57: case.run starting 4971137.desched1
 ---------------------------------------------------
2024-06-27 20:41:15: model execution starting 4971137.desched1
 ---------------------------------------------------
2024-06-28 01:26:44: model execution success 4971137.desched1
 ---------------------------------------------------
2024-06-28 01:26:44: case.run success 4971137.desched1
 ---------------------------------------------------
2024-06-28 01:27:04: st_archive starting 4971139.desched1
 ---------------------------------------------------
2024-06-28 01:27:38: st_archive success 4971139.desched1
 ---------------------------------------------------
2024-06-28 01:27:38: case.submit starting 4972369.desched1
 ---------------------------------------------------
2024-06-28 01:27:38: case.submit success 4972369.desched1
 ---------------------------------------------------
2024-06-28 01:28:35: case.run starting 4972368.desched1
 ---------------------------------------------------
2024-06-28 01:28:41: model execution starting 4972368.desched1
 ---------------------------------------------------
2024-06-28 06:09:37: model execution success 4972368.desched1
 ---------------------------------------------------
2024-06-28 06:09:37: case.run success 4972368.desched1
 ---------------------------------------------------
2024-06-28 06:09:56: st_archive starting 4972369.desched1
 ---------------------------------------------------
2024-06-28 06:10:28: st_archive success 4972369.desched1
 ---------------------------------------------------
2024-06-28 06:10:28: case.submit starting 4973386.desched1
 ---------------------------------------------------
2024-06-28 06:10:28: case.submit success 4973386.desched1
 ---------------------------------------------------
2024-06-28 06:11:04: case.run starting 4973385.desched1
 ---------------------------------------------------