2023-07-27 15:27:01: case.setup starting 
 ---------------------------------------------------
2023-07-27 15:27:02: case.setup success 
 ---------------------------------------------------
2023-07-27 15:27:08: xmlchange success <command> ./xmlchange --append CAM_CONFIG_OPTS=-cosp  </command>
 ---------------------------------------------------
2023-07-27 15:30:19: case.build starting 
 ---------------------------------------------------
2023-07-27 15:43:00: case.build success 
 ---------------------------------------------------
2023-07-27 15:59:40: case.build starting 
 ---------------------------------------------------
2023-07-27 16:02:10: case.build error 
ERROR: BUILD FAIL: cam.buildlib failed, cat /glade/derecho/scratch/hannay/b.e23_alpha16b.BLT1850.ne30_t232.033/bld/atm.bldlog.230727-155940
 ---------------------------------------------------
2023-07-27 16:02:20: case.build starting 
 ---------------------------------------------------
2023-07-27 16:03:26: case.build success 
 ---------------------------------------------------
2023-07-27 16:12:42: case.build starting 
 ---------------------------------------------------
2023-07-27 16:13:15: case.build success 
 ---------------------------------------------------
2023-07-28 11:42:49: case.build starting 
 ---------------------------------------------------
2023-07-28 11:43:28: case.build success 
 ---------------------------------------------------
2023-07-28 14:12:42: case.build starting 
 ---------------------------------------------------
2023-07-28 14:13:28: case.build success 
 ---------------------------------------------------
2023-07-28 14:15:24: case.build starting 
 ---------------------------------------------------
2023-07-28 14:16:01: case.build success 
 ---------------------------------------------------
2023-07-28 14:16:05: xmlchange success <command> ./xmlchange PROJECT=CESM0023,RESUBMIT=0,STOP_N=1,STOP_OPTION=nmonths  </command>
 ---------------------------------------------------
2023-07-28 14:16:06: xmlchange success <command> ./xmlchange REST_OPTION=nmonths,REST_N=1  </command>
 ---------------------------------------------------
2023-07-28 14:16:07: xmlchange success <command> ./xmlchange JOB_WALLCLOCK_TIME=12:00:00  </command>
 ---------------------------------------------------
2023-07-28 14:16:14: case.submit starting 1246539.desched1
 ---------------------------------------------------
2023-07-28 14:16:14: case.submit success 1246539.desched1
 ---------------------------------------------------
2023-07-28 14:16:24: case.run starting 1246538.desched1
 ---------------------------------------------------
2023-07-28 14:16:30: model execution starting 1246538.desched1
 ---------------------------------------------------
2023-07-28 14:16:42: model execution error 
ERROR: Command: 'mpiexec  --label  --line-buffer  -n 2176 /glade/derecho/scratch/hannay/b.e23_alpha16b.BLT1850.ne30_t232.033/bld/cesm.exe   >> cesm.log.$LID 2>&1 ' failed with error '' from dir '/glade/derecho/scratch/hannay/b.e23_alpha16b.BLT1850.ne30_t232.033/run'
 ---------------------------------------------------
2023-07-28 14:16:42: case.run error 
ERROR: RUN FAIL: Command 'mpiexec  --label  --line-buffer  -n 2176 /glade/derecho/scratch/hannay/b.e23_alpha16b.BLT1850.ne30_t232.033/bld/cesm.exe   >> cesm.log.$LID 2>&1 ' failed
See log file for details: /glade/derecho/scratch/hannay/b.e23_alpha16b.BLT1850.ne30_t232.033/run/cesm.log.1246538.desched1.230728-141624
 ---------------------------------------------------
2023-07-28 14:29:44: case.build starting 
 ---------------------------------------------------
2023-07-28 14:30:23: case.build success 
 ---------------------------------------------------
2023-07-28 14:30:25: xmlchange success <command> ./xmlchange PROJECT=CESM0023,RESUBMIT=0,STOP_N=1,STOP_OPTION=nmonths  </command>
 ---------------------------------------------------
2023-07-28 14:30:26: xmlchange success <command> ./xmlchange REST_OPTION=nmonths,REST_N=1  </command>
 ---------------------------------------------------
2023-07-28 14:30:26: xmlchange success <command> ./xmlchange JOB_WALLCLOCK_TIME=12:00:00  </command>
 ---------------------------------------------------
2023-07-28 14:30:32: case.submit starting 1246563.desched1
 ---------------------------------------------------
2023-07-28 14:30:32: case.submit success 1246563.desched1
 ---------------------------------------------------
2023-07-28 14:30:35: case.run starting 1246562.desched1
 ---------------------------------------------------
2023-07-28 14:30:38: model execution starting 1246562.desched1
 ---------------------------------------------------
2023-07-28 14:30:53: model execution error 
ERROR: Command: 'mpiexec  --label  --line-buffer  -n 2176 /glade/derecho/scratch/hannay/b.e23_alpha16b.BLT1850.ne30_t232.033/bld/cesm.exe   >> cesm.log.$LID 2>&1 ' failed with error '' from dir '/glade/derecho/scratch/hannay/b.e23_alpha16b.BLT1850.ne30_t232.033/run'
 ---------------------------------------------------
2023-07-28 14:30:53: case.run error 
ERROR: RUN FAIL: Command 'mpiexec  --label  --line-buffer  -n 2176 /glade/derecho/scratch/hannay/b.e23_alpha16b.BLT1850.ne30_t232.033/bld/cesm.exe   >> cesm.log.$LID 2>&1 ' failed
See log file for details: /glade/derecho/scratch/hannay/b.e23_alpha16b.BLT1850.ne30_t232.033/run/cesm.log.1246562.desched1.230728-143035
 ---------------------------------------------------
2023-07-28 18:15:37: case.build starting 
 ---------------------------------------------------
2023-07-28 18:16:38: case.build starting 
 ---------------------------------------------------
2023-07-28 18:17:17: case.build success 
 ---------------------------------------------------
2023-07-28 18:17:34: xmlchange success <command> ./xmlchange PROJECT=CESM0023,RESUBMIT=0,STOP_N=1,STOP_OPTION=nmonths  </command>
 ---------------------------------------------------
2023-07-28 18:17:34: xmlchange success <command> ./xmlchange REST_OPTION=nmonths,REST_N=1  </command>
 ---------------------------------------------------
2023-07-28 18:17:35: xmlchange success <command> ./xmlchange JOB_WALLCLOCK_TIME=12:00:00  </command>
 ---------------------------------------------------
2023-07-28 18:17:41: case.submit starting 1246596.desched1
 ---------------------------------------------------
2023-07-28 18:17:41: case.submit success 1246596.desched1
 ---------------------------------------------------
2023-07-28 23:42:33: case.run starting 1246595.desched1
 ---------------------------------------------------
2023-07-28 23:42:38: model execution starting 1246595.desched1
 ---------------------------------------------------
2023-07-28 23:42:54: model execution error 
ERROR: Command: 'mpiexec  --label  --line-buffer  -n 2176 /glade/derecho/scratch/hannay/b.e23_alpha16b.BLT1850.ne30_t232.033/bld/cesm.exe   >> cesm.log.$LID 2>&1 ' failed with error '' from dir '/glade/derecho/scratch/hannay/b.e23_alpha16b.BLT1850.ne30_t232.033/run'
 ---------------------------------------------------
2023-07-28 23:42:54: case.run error 
ERROR: RUN FAIL: Command 'mpiexec  --label  --line-buffer  -n 2176 /glade/derecho/scratch/hannay/b.e23_alpha16b.BLT1850.ne30_t232.033/bld/cesm.exe   >> cesm.log.$LID 2>&1 ' failed
See log file for details: /glade/derecho/scratch/hannay/b.e23_alpha16b.BLT1850.ne30_t232.033/run/cesm.log.1246595.desched1.230728-234233
 ---------------------------------------------------
2023-07-29 07:43:14: case.submit starting 1246672.desched1
 ---------------------------------------------------
2023-07-29 07:43:14: case.submit success 1246672.desched1
 ---------------------------------------------------
2023-07-29 07:43:18: case.run starting 1246671.desched1
 ---------------------------------------------------
2023-07-29 07:43:22: model execution starting 1246671.desched1
 ---------------------------------------------------
2023-07-29 07:43:33: model execution error 
ERROR: Command: 'mpiexec  --label  --line-buffer  -n 2176 /glade/derecho/scratch/hannay/b.e23_alpha16b.BLT1850.ne30_t232.033/bld/cesm.exe   >> cesm.log.$LID 2>&1 ' failed with error '' from dir '/glade/derecho/scratch/hannay/b.e23_alpha16b.BLT1850.ne30_t232.033/run'
 ---------------------------------------------------
2023-07-29 07:43:33: case.run error 
ERROR: RUN FAIL: Command 'mpiexec  --label  --line-buffer  -n 2176 /glade/derecho/scratch/hannay/b.e23_alpha16b.BLT1850.ne30_t232.033/bld/cesm.exe   >> cesm.log.$LID 2>&1 ' failed
See log file for details: /glade/derecho/scratch/hannay/b.e23_alpha16b.BLT1850.ne30_t232.033/run/cesm.log.1246671.desched1.230729-074318
 ---------------------------------------------------
2023-07-29 07:55:29: case.build starting 
 ---------------------------------------------------
2023-07-29 07:56:11: case.build success 
 ---------------------------------------------------
2023-07-29 07:56:12: xmlchange success <command> ./xmlchange PROJECT=CESM0023,RESUBMIT=0,STOP_N=1,STOP_OPTION=nmonths  </command>
 ---------------------------------------------------
2023-07-29 07:56:12: xmlchange success <command> ./xmlchange REST_OPTION=nmonths,REST_N=1  </command>
 ---------------------------------------------------
2023-07-29 07:56:13: xmlchange success <command> ./xmlchange JOB_WALLCLOCK_TIME=12:00:00  </command>
 ---------------------------------------------------
2023-07-29 07:57:30: case.submit starting 1246677.desched1
 ---------------------------------------------------
2023-07-29 07:57:30: case.submit success 1246677.desched1
 ---------------------------------------------------
2023-07-29 07:57:35: case.run starting 1246676.desched1
 ---------------------------------------------------
2023-07-29 07:57:40: model execution starting 1246676.desched1
 ---------------------------------------------------
2023-07-29 08:20:46: model execution success 1246676.desched1
 ---------------------------------------------------
2023-07-29 08:20:46: case.run success 1246676.desched1
 ---------------------------------------------------
2023-07-29 08:20:50: st_archive starting 1246677.desched1
 ---------------------------------------------------
2023-07-29 08:21:04: st_archive success 1246677.desched1
 ---------------------------------------------------
2023-07-29 08:21:20: case.build starting 
 ---------------------------------------------------
2023-07-29 08:21:54: case.build success 
 ---------------------------------------------------
2023-07-29 08:22:32: case.build starting 
 ---------------------------------------------------
2023-07-29 08:22:59: case.build success 
 ---------------------------------------------------
2023-07-29 08:23:26: xmlchange success <command> ./xmlchange PROJECT=CESM0023,RESUBMIT=5,STOP_N=2,STOP_OPTION=nyears  </command>
 ---------------------------------------------------
2023-07-29 08:23:27: xmlchange success <command> ./xmlchange REST_OPTION=nyears,REST_N=1  </command>
 ---------------------------------------------------
2023-07-29 08:23:28: xmlchange success <command> ./xmlchange JOB_WALLCLOCK_TIME=12:00:00  </command>
 ---------------------------------------------------
2023-07-29 08:23:34: case.submit starting 1246682.desched1
 ---------------------------------------------------
2023-07-29 08:23:34: case.submit success 1246682.desched1
 ---------------------------------------------------
2023-07-29 08:23:38: case.run starting 1246681.desched1
 ---------------------------------------------------
2023-07-29 08:23:42: model execution starting 1246681.desched1
 ---------------------------------------------------
2023-07-29 08:23:53: model execution error 
ERROR: Command: 'mpiexec  --label  --line-buffer  -n 2176 /glade/derecho/scratch/hannay/b.e23_alpha16b.BLT1850.ne30_t232.033/bld/cesm.exe   >> cesm.log.$LID 2>&1 ' failed with error '' from dir '/glade/derecho/scratch/hannay/b.e23_alpha16b.BLT1850.ne30_t232.033/run'
 ---------------------------------------------------
2023-07-29 08:23:53: case.run error 
ERROR: RUN FAIL: Command 'mpiexec  --label  --line-buffer  -n 2176 /glade/derecho/scratch/hannay/b.e23_alpha16b.BLT1850.ne30_t232.033/bld/cesm.exe   >> cesm.log.$LID 2>&1 ' failed
See log file for details: /glade/derecho/scratch/hannay/b.e23_alpha16b.BLT1850.ne30_t232.033/run/cesm.log.1246681.desched1.230729-082338
 ---------------------------------------------------
2023-07-29 11:19:55: case.build starting 
 ---------------------------------------------------
2023-07-29 11:20:38: case.build success 
 ---------------------------------------------------
2023-07-29 11:20:41: xmlchange success <command> ./xmlchange PROJECT=CESM0023,RESUBMIT=5,STOP_N=2,STOP_OPTION=nyears  </command>
 ---------------------------------------------------
2023-07-29 11:20:41: xmlchange success <command> ./xmlchange REST_OPTION=nyears,REST_N=1  </command>
 ---------------------------------------------------
2023-07-29 11:20:42: xmlchange success <command> ./xmlchange JOB_WALLCLOCK_TIME=12:00:00  </command>
 ---------------------------------------------------
2023-07-29 11:20:51: case.submit starting 1246711.desched1
 ---------------------------------------------------
2023-07-29 11:20:51: case.submit success 1246711.desched1
 ---------------------------------------------------
2023-07-29 11:21:00: case.run starting 1246710.desched1
 ---------------------------------------------------
2023-07-29 11:21:04: model execution starting 1246710.desched1
 ---------------------------------------------------
2023-07-29 11:21:35: model execution error 
ERROR: Command: 'mpiexec  --label  --line-buffer  -n 2176 /glade/derecho/scratch/hannay/b.e23_alpha16b.BLT1850.ne30_t232.033/bld/cesm.exe   >> cesm.log.$LID 2>&1 ' failed with error '' from dir '/glade/derecho/scratch/hannay/b.e23_alpha16b.BLT1850.ne30_t232.033/run'
 ---------------------------------------------------
2023-07-29 11:21:35: case.run error 
ERROR: RUN FAIL: Command 'mpiexec  --label  --line-buffer  -n 2176 /glade/derecho/scratch/hannay/b.e23_alpha16b.BLT1850.ne30_t232.033/bld/cesm.exe   >> cesm.log.$LID 2>&1 ' failed
See log file for details: /glade/derecho/scratch/hannay/b.e23_alpha16b.BLT1850.ne30_t232.033/run/cesm.log.1246710.desched1.230729-112100
 ---------------------------------------------------
2023-07-29 11:58:24: case.build starting 
 ---------------------------------------------------
2023-07-29 11:59:06: case.build success 
 ---------------------------------------------------
2023-07-29 11:59:08: xmlchange success <command> ./xmlchange PROJECT=CESM0023,RESUBMIT=5,STOP_N=2,STOP_OPTION=nyears  </command>
 ---------------------------------------------------
2023-07-29 11:59:08: xmlchange success <command> ./xmlchange REST_OPTION=nyears,REST_N=1  </command>
 ---------------------------------------------------
2023-07-29 11:59:09: xmlchange success <command> ./xmlchange JOB_WALLCLOCK_TIME=12:00:00  </command>
 ---------------------------------------------------
2023-07-29 11:59:16: case.submit starting 1246730.desched1
 ---------------------------------------------------
2023-07-29 11:59:16: case.submit success 1246730.desched1
 ---------------------------------------------------
2023-07-29 11:59:19: case.run starting 1246729.desched1
 ---------------------------------------------------
2023-07-29 11:59:22: model execution starting 1246729.desched1
 ---------------------------------------------------
2023-07-29 11:59:48: model execution error 
ERROR: Command: 'mpiexec  --label  --line-buffer  -n 2176 /glade/derecho/scratch/hannay/b.e23_alpha16b.BLT1850.ne30_t232.033/bld/cesm.exe   >> cesm.log.$LID 2>&1 ' failed with error '' from dir '/glade/derecho/scratch/hannay/b.e23_alpha16b.BLT1850.ne30_t232.033/run'
 ---------------------------------------------------
2023-07-29 11:59:48: case.run error 
ERROR: RUN FAIL: Command 'mpiexec  --label  --line-buffer  -n 2176 /glade/derecho/scratch/hannay/b.e23_alpha16b.BLT1850.ne30_t232.033/bld/cesm.exe   >> cesm.log.$LID 2>&1 ' failed
See log file for details: /glade/derecho/scratch/hannay/b.e23_alpha16b.BLT1850.ne30_t232.033/run/cesm.log.1246729.desched1.230729-115919
 ---------------------------------------------------
2023-07-29 12:02:37: case.build starting 
 ---------------------------------------------------
2023-07-29 12:03:12: case.build success 
 ---------------------------------------------------
2023-07-29 12:03:13: xmlchange success <command> ./xmlchange PROJECT=CESM0023,RESUBMIT=5,STOP_N=2,STOP_OPTION=nyears  </command>
 ---------------------------------------------------
2023-07-29 12:03:14: xmlchange success <command> ./xmlchange REST_OPTION=nyears,REST_N=1  </command>
 ---------------------------------------------------
2023-07-29 12:03:14: xmlchange success <command> ./xmlchange JOB_WALLCLOCK_TIME=12:00:00  </command>
 ---------------------------------------------------
2023-07-29 12:03:20: case.submit starting 1246737.desched1
 ---------------------------------------------------
2023-07-29 12:03:20: case.submit success 1246737.desched1
 ---------------------------------------------------
2023-07-29 12:03:22: case.run starting 1246736.desched1
 ---------------------------------------------------
2023-07-29 12:03:25: model execution starting 1246736.desched1
 ---------------------------------------------------
2023-07-29 19:52:16: model execution success 1246736.desched1
 ---------------------------------------------------
2023-07-29 19:52:16: case.run success 1246736.desched1
 ---------------------------------------------------
2023-07-29 19:52:24: st_archive starting 1246737.desched1
 ---------------------------------------------------
2023-07-29 19:52:41: st_archive success 1246737.desched1
 ---------------------------------------------------
2023-07-29 19:52:41: case.submit starting 1246826.desched1
 ---------------------------------------------------
2023-07-29 19:52:41: case.submit success 1246826.desched1
 ---------------------------------------------------
2023-07-29 19:52:45: case.run starting 1246825.desched1
 ---------------------------------------------------
2023-07-29 19:52:49: model execution starting 1246825.desched1
 ---------------------------------------------------
2023-07-30 03:38:35: model execution success 1246825.desched1
 ---------------------------------------------------
2023-07-30 03:38:35: case.run success 1246825.desched1
 ---------------------------------------------------
2023-07-30 03:38:43: st_archive starting 1246826.desched1
 ---------------------------------------------------
2023-07-30 03:39:00: st_archive success 1246826.desched1
 ---------------------------------------------------
2023-07-30 03:39:00: case.submit starting 1247028.desched1
 ---------------------------------------------------
2023-07-30 03:39:00: case.submit success 1247028.desched1
 ---------------------------------------------------
2023-07-30 03:39:03: case.run starting 1247027.desched1
 ---------------------------------------------------
2023-07-30 03:39:06: model execution starting 1247027.desched1
 ---------------------------------------------------
2023-07-30 11:20:54: model execution success 1247027.desched1
 ---------------------------------------------------
2023-07-30 11:20:54: case.run success 1247027.desched1
 ---------------------------------------------------
2023-07-30 11:21:02: st_archive starting 1247028.desched1
 ---------------------------------------------------
2023-07-30 11:21:19: st_archive success 1247028.desched1
 ---------------------------------------------------
2023-07-30 11:21:20: case.submit starting 1247062.desched1
 ---------------------------------------------------
2023-07-30 11:21:20: case.submit success 1247062.desched1
 ---------------------------------------------------
2023-07-30 11:21:31: case.run starting 1247061.desched1
 ---------------------------------------------------
2023-07-30 11:21:35: model execution starting 1247061.desched1
 ---------------------------------------------------
2023-07-30 11:32:04: xmlchange success <command> ./xmlchange PROJECT=CESM0023,RESUBMIT=15,STOP_N=2,STOP_OPTION=nyears  </command>
 ---------------------------------------------------
2023-07-30 19:03:57: model execution success 1247061.desched1
 ---------------------------------------------------
2023-07-30 19:03:57: case.run success 1247061.desched1
 ---------------------------------------------------
2023-07-30 19:04:04: st_archive starting 1247062.desched1
 ---------------------------------------------------
2023-07-30 19:04:21: st_archive success 1247062.desched1
 ---------------------------------------------------
2023-07-30 19:04:22: case.submit starting 1247188.desched1
 ---------------------------------------------------
2023-07-30 19:04:22: case.submit success 1247188.desched1
 ---------------------------------------------------
2023-07-30 19:04:25: case.run starting 1247187.desched1
 ---------------------------------------------------
2023-07-30 19:04:28: model execution starting 1247187.desched1
 ---------------------------------------------------
2023-07-31 02:51:46: model execution success 1247187.desched1
 ---------------------------------------------------
2023-07-31 02:51:46: case.run success 1247187.desched1
 ---------------------------------------------------
2023-07-31 02:51:54: st_archive starting 1247188.desched1
 ---------------------------------------------------
2023-07-31 02:52:11: st_archive success 1247188.desched1
 ---------------------------------------------------
2023-07-31 02:52:11: case.submit starting 1247323.desched1
 ---------------------------------------------------
2023-07-31 02:52:11: case.submit success 1247323.desched1
 ---------------------------------------------------
2023-07-31 02:52:14: case.run starting 1247322.desched1
 ---------------------------------------------------
2023-07-31 02:52:18: model execution starting 1247322.desched1
 ---------------------------------------------------
2023-07-31 10:37:01: model execution success 1247322.desched1
 ---------------------------------------------------
2023-07-31 10:37:01: case.run success 1247322.desched1
 ---------------------------------------------------
2023-07-31 10:37:12: st_archive starting 1247323.desched1
 ---------------------------------------------------
2023-07-31 10:37:29: st_archive success 1247323.desched1
 ---------------------------------------------------
2023-07-31 10:37:29: case.submit starting 1247434.desched1
 ---------------------------------------------------
2023-07-31 10:37:29: case.submit success 1247434.desched1
 ---------------------------------------------------
2023-07-31 10:37:33: case.run starting 1247433.desched1
 ---------------------------------------------------
2023-07-31 10:37:36: model execution starting 1247433.desched1
 ---------------------------------------------------
2023-07-31 18:26:01: model execution success 1247433.desched1
 ---------------------------------------------------
2023-07-31 18:26:01: case.run success 1247433.desched1
 ---------------------------------------------------
2023-07-31 18:26:10: st_archive starting 1247434.desched1
 ---------------------------------------------------
2023-07-31 18:26:27: st_archive success 1247434.desched1
 ---------------------------------------------------
2023-07-31 18:26:27: case.submit starting 1247632.desched1
 ---------------------------------------------------
2023-07-31 18:26:27: case.submit success 1247632.desched1
 ---------------------------------------------------
2023-07-31 18:26:31: case.run starting 1247631.desched1
 ---------------------------------------------------
2023-07-31 18:26:34: model execution starting 1247631.desched1
 ---------------------------------------------------
2023-08-01 02:09:13: model execution success 1247631.desched1
 ---------------------------------------------------
2023-08-01 02:09:13: case.run success 1247631.desched1
 ---------------------------------------------------
2023-08-01 02:09:21: st_archive starting 1247632.desched1
 ---------------------------------------------------
2023-08-01 02:09:41: st_archive success 1247632.desched1
 ---------------------------------------------------
2023-08-01 02:09:42: case.submit starting 1247908.desched1
 ---------------------------------------------------
2023-08-01 02:09:42: case.submit success 1247908.desched1
 ---------------------------------------------------
2023-08-01 02:09:45: case.run starting 1247907.desched1
 ---------------------------------------------------
2023-08-01 02:09:48: model execution starting 1247907.desched1
 ---------------------------------------------------
2023-08-01 09:54:19: model execution success 1247907.desched1
 ---------------------------------------------------
2023-08-01 09:54:19: case.run success 1247907.desched1
 ---------------------------------------------------
2023-08-01 09:54:30: st_archive starting 1247908.desched1
 ---------------------------------------------------
2023-08-01 09:54:48: st_archive success 1247908.desched1
 ---------------------------------------------------
2023-08-01 09:54:49: case.submit starting 1248027.desched1
 ---------------------------------------------------
2023-08-01 09:54:49: case.submit success 1248027.desched1
 ---------------------------------------------------
2023-08-01 09:54:52: case.run starting 1248026.desched1
 ---------------------------------------------------
2023-08-01 09:54:55: model execution starting 1248026.desched1
 ---------------------------------------------------
2023-08-01 17:38:41: model execution success 1248026.desched1
 ---------------------------------------------------
2023-08-01 17:38:41: case.run success 1248026.desched1
 ---------------------------------------------------
2023-08-01 17:38:50: st_archive starting 1248027.desched1
 ---------------------------------------------------
2023-08-01 17:39:08: st_archive success 1248027.desched1
 ---------------------------------------------------
2023-08-01 17:39:08: case.submit starting 1249212.desched1
 ---------------------------------------------------
2023-08-01 17:39:08: case.submit success 1249212.desched1
 ---------------------------------------------------
2023-08-01 17:39:11: case.run starting 1249211.desched1
 ---------------------------------------------------
2023-08-01 17:39:15: model execution starting 1249211.desched1
 ---------------------------------------------------
2023-08-02 01:24:13: model execution success 1249211.desched1
 ---------------------------------------------------
2023-08-02 01:24:13: case.run success 1249211.desched1
 ---------------------------------------------------
2023-08-02 01:24:21: st_archive starting 1249212.desched1
 ---------------------------------------------------
2023-08-02 01:24:40: st_archive success 1249212.desched1
 ---------------------------------------------------
2023-08-02 01:24:41: case.submit starting 1249524.desched1
 ---------------------------------------------------
2023-08-02 01:24:41: case.submit success 1249524.desched1
 ---------------------------------------------------
2023-08-02 01:24:43: case.run starting 1249523.desched1
 ---------------------------------------------------
2023-08-02 01:24:47: model execution starting 1249523.desched1
 ---------------------------------------------------
2023-08-02 09:11:27: model execution success 1249523.desched1
 ---------------------------------------------------
2023-08-02 09:11:27: case.run success 1249523.desched1
 ---------------------------------------------------
2023-08-02 09:11:36: st_archive starting 1249524.desched1
 ---------------------------------------------------
2023-08-02 09:11:54: st_archive success 1249524.desched1
 ---------------------------------------------------
2023-08-02 09:11:55: case.submit starting 1249823.desched1
 ---------------------------------------------------
2023-08-02 09:11:55: case.submit success 1249823.desched1
 ---------------------------------------------------
2023-08-02 09:11:58: case.run starting 1249822.desched1
 ---------------------------------------------------
2023-08-02 09:12:01: model execution starting 1249822.desched1
 ---------------------------------------------------
2023-08-02 10:41:59: xmlchange success <command> ./xmlchange RESUBMIT=0  </command>
 ---------------------------------------------------
2023-08-02 16:58:52: model execution success 1249822.desched1
 ---------------------------------------------------
2023-08-02 16:58:52: case.run success 1249822.desched1
 ---------------------------------------------------
2023-08-02 16:59:02: st_archive starting 1249823.desched1
 ---------------------------------------------------
2023-08-02 16:59:21: st_archive success 1249823.desched1
 ---------------------------------------------------
