2024-04-24 21:16:24: case.setup starting 
 ---------------------------------------------------
2024-04-24 21:16:27: case.setup success 
 ---------------------------------------------------
2024-04-24 21:20:41: xmlchange success <command> ./xmlchange RUN_REFCASE=b.e23_alpha16g.BLT1850.ne30_t232.075  </command>
 ---------------------------------------------------
2024-04-24 21:20:42: xmlchange success <command> ./xmlchange RUN_REFDATE=0101-01-01  </command>
 ---------------------------------------------------
2024-04-24 21:20:42: xmlchange success <command> ./xmlchange RUN_TYPE=hybrid  </command>
 ---------------------------------------------------
2024-04-24 21:20:43: xmlchange success <command> ./xmlchange GET_REFCASE=true  </command>
 ---------------------------------------------------
2024-04-24 21:20:43: xmlchange success <command> ./xmlchange RUN_REFDIR=cesm2_init  </command>
 ---------------------------------------------------
2024-04-24 21:26:16: case.build starting 
 ---------------------------------------------------
2024-04-24 21:27:47: xmlchange success <command> ./xmlchange PROJECT=CESM0023,RESUBMIT=1,STOP_N=1,STOP_OPTION=nyears  </command>
 ---------------------------------------------------
2024-04-24 21:27:48: xmlchange success <command> ./xmlchange REST_OPTION=nyears,REST_N=1  </command>
 ---------------------------------------------------
2024-04-24 21:27:49: xmlchange success <command> ./xmlchange JOB_WALLCLOCK_TIME=12:00:00  </command>
 ---------------------------------------------------
2024-04-24 21:35:24: case.build error 
ERROR: File /glade/campaign/cesm/cesmdata/cseg/runs/cesm2_0/b.e23_alpha16g.BLT1850.ne30_t232_daily.082b/env_run.xml appears to have changed without a corresponding invalidation.
 ---------------------------------------------------
2024-04-24 21:36:44: case.build starting 
 ---------------------------------------------------
2024-04-24 21:42:37: case.build success 
 ---------------------------------------------------
2024-04-24 21:47:27: case.build starting 
 ---------------------------------------------------
2024-04-24 21:47:55: case.build success 
 ---------------------------------------------------
2024-04-24 21:48:05: case.submit starting 4258552.desched1
 ---------------------------------------------------
2024-04-24 21:48:05: case.submit success 4258552.desched1
 ---------------------------------------------------
2024-04-24 21:58:06: case.run starting 4258551.desched1
 ---------------------------------------------------
2024-04-24 21:58:12: model execution starting 4258551.desched1
 ---------------------------------------------------
2024-04-25 01:17:03: model execution success 4258551.desched1
 ---------------------------------------------------
2024-04-25 01:17:03: case.run success 4258551.desched1
 ---------------------------------------------------
2024-04-25 01:17:26: st_archive starting 4258552.desched1
 ---------------------------------------------------
2024-04-25 01:17:54: st_archive success 4258552.desched1
 ---------------------------------------------------
2024-04-25 01:17:55: case.submit starting 4259335.desched1
 ---------------------------------------------------
2024-04-25 01:17:55: case.submit success 4259335.desched1
 ---------------------------------------------------
2024-04-25 01:20:01: case.run starting 4259334.desched1
 ---------------------------------------------------
2024-04-25 01:20:09: model execution starting 4259334.desched1
 ---------------------------------------------------
2024-04-25 04:42:09: model execution success 4259334.desched1
 ---------------------------------------------------
2024-04-25 04:42:09: case.run success 4259334.desched1
 ---------------------------------------------------
2024-04-25 04:42:26: st_archive starting 4259335.desched1
 ---------------------------------------------------
2024-04-25 04:42:56: st_archive success 4259335.desched1
 ---------------------------------------------------
