2023-04-03 13:44:32: xmlchange success <command> ./xmlchange --append CAM_CONFIG_OPTS=-cosp  </command>
 ---------------------------------------------------
2023-04-03 13:44:33: case.setup starting 
 ---------------------------------------------------
2023-04-03 13:44:34: case.setup success 
 ---------------------------------------------------
2023-04-03 13:44:35: xmlchange success <command> ./xmlchange RUN_STARTDATE=1979-01-01  </command>
 ---------------------------------------------------
2023-04-03 13:44:35: xmlchange success <command> ./xmlchange STOP_N=2  </command>
 ---------------------------------------------------
2023-04-03 13:44:35: xmlchange success <command> ./xmlchange STOP_OPTION=nyears  </command>
 ---------------------------------------------------
2023-04-03 13:44:36: xmlchange success <command> ./xmlchange RESUBMIT=5  </command>
 ---------------------------------------------------
2023-04-03 13:44:36: xmlchange success <command> ./xmlchange RUN_TYPE=hybrid  </command>
 ---------------------------------------------------
2023-04-03 13:44:36: xmlchange success <command> ./xmlchange RUN_REFCASE=f.e21.FWscHIST_BGC.ne30_ne30_mg17_L48_revert-J.001  </command>
 ---------------------------------------------------
2023-04-03 13:44:37: xmlchange success <command> ./xmlchange RUN_REFDATE=1989-01-01  </command>
 ---------------------------------------------------
2023-04-03 13:44:37: xmlchange success <command> ./xmlchange GET_REFCASE=TRUE  </command>
 ---------------------------------------------------
2023-04-03 13:44:38: xmlchange success <command> ./xmlchange RUN_REFDIR=cesm2_init  </command>
 ---------------------------------------------------
2023-04-03 13:45:35: case.build starting 
 ---------------------------------------------------
2023-04-03 13:47:23: case.build starting 
 ---------------------------------------------------
2023-04-03 13:50:09: case.build starting 
 ---------------------------------------------------
2023-04-03 13:53:18: case.build error 
ERROR: /glade/work/hannay/cesm_tags/cam6_3_101/components/cdeps/cime_config/buildlib FAILED, cat /glade/scratch/hannay/f.cam6_3_101.FLTHIST_v0a.ne30.003/bld/CDEPS.bldlog.230403-134723
 ---------------------------------------------------
2023-04-03 13:55:28: case.build error 
ERROR: /glade/work/hannay/cesm_tags/cam6_3_101/components/cdeps/cime_config/buildlib FAILED, cat /glade/scratch/hannay/f.cam6_3_101.FLTHIST_v0a.ne30.003/bld/CDEPS.bldlog.230403-135009
 ---------------------------------------------------
2023-04-03 14:06:59: case.build starting 
 ---------------------------------------------------
2023-04-03 14:12:17: case.build error 
ERROR: /glade/work/hannay/cesm_tags/cam6_3_101/components/cdeps/cime_config/buildlib FAILED, cat /glade/scratch/hannay/f.cam6_3_101.FLTHIST_v0a.ne30.003/bld/CDEPS.bldlog.230403-140659
 ---------------------------------------------------
2023-04-03 14:12:46: build.clean starting 
 ---------------------------------------------------
2023-04-03 14:12:49: build.clean success 
 ---------------------------------------------------
2023-04-03 14:13:06: case.build starting 
 ---------------------------------------------------
2023-04-03 14:25:44: case.build success 
 ---------------------------------------------------
2023-04-03 14:26:09: case.build starting 
 ---------------------------------------------------
2023-04-03 14:27:47: case.build success 
 ---------------------------------------------------
2023-04-03 14:30:19: case.build starting 
 ---------------------------------------------------
2023-04-03 14:31:58: case.build success 
 ---------------------------------------------------
2023-04-03 14:32:13: xmlchange success <command> ./xmlchange PROJECT=P93300642,JOB_QUEUE=premium,RESUBMIT=0,STOP_N=1,STOP_OPTION=nmonths  </command>
 ---------------------------------------------------
2023-04-03 14:32:14: xmlchange success <command> ./xmlchange REST_OPTION=nyears,REST_N=1  </command>
 ---------------------------------------------------
2023-04-03 14:32:19: case.submit starting 9092661.chadmin1.ib0.cheyenne.ucar.edu
 ---------------------------------------------------
2023-04-03 14:32:19: case.submit success 9092661.chadmin1.ib0.cheyenne.ucar.edu
 ---------------------------------------------------
2023-04-03 14:39:24: case.run starting 9092660.chadmin1.ib0.cheyenne.ucar.edu
 ---------------------------------------------------
2023-04-03 14:39:28: model execution starting 9092660.chadmin1.ib0.cheyenne.ucar.edu
 ---------------------------------------------------
2023-04-03 15:00:55: model execution success 9092660.chadmin1.ib0.cheyenne.ucar.edu
 ---------------------------------------------------
2023-04-03 15:00:55: case.run success 9092660.chadmin1.ib0.cheyenne.ucar.edu
 ---------------------------------------------------
2023-04-03 15:01:01: st_archive starting 9092661.chadmin1.ib0.cheyenne.ucar.edu
 ---------------------------------------------------
2023-04-03 15:01:01: st_archive success 9092661.chadmin1.ib0.cheyenne.ucar.edu
 ---------------------------------------------------
