2023-08-31 15:45:07: case.setup starting 
 ---------------------------------------------------
2023-08-31 15:45:08: case.setup success 
 ---------------------------------------------------
2023-08-31 15:45:13: xmlchange success <command> ./xmlchange --append CAM_CONFIG_OPTS=-cosp  </command>
 ---------------------------------------------------
2023-08-31 15:47:35: case.build starting 
 ---------------------------------------------------
2023-08-31 15:55:31: case.build starting 
 ---------------------------------------------------
2023-08-31 15:56:55: case.build error 
ERROR: BUILD FAIL: cism.buildlib failed, cat /glade/derecho/scratch/hannay/b.e23_alpha16b.BLT1850.ne30_t232.042/bld/glc.bldlog.230831-155531
BUILD FAIL: cam.buildlib failed, cat /glade/derecho/scratch/hannay/b.e23_alpha16b.BLT1850.ne30_t232.042/bld/atm.bldlog.230831-155531
 ---------------------------------------------------
2023-08-31 15:58:20: case.build starting 
 ---------------------------------------------------
2023-08-31 15:59:33: case.build error 
ERROR: BUILD FAIL: buildexe failed, cat /glade/derecho/scratch/hannay/b.e23_alpha16b.BLT1850.ne30_t232.042/bld/cesm.bldlog.230831-154735
 ---------------------------------------------------
2023-08-31 15:59:55: case.build success 
 ---------------------------------------------------
2023-08-31 16:01:39: case.build starting 
 ---------------------------------------------------
2023-08-31 16:02:19: case.build success 
 ---------------------------------------------------
2023-08-31 16:02:20: xmlchange success <command> ./xmlchange PROJECT=CESM0023,RESUBMIT=10,STOP_N=2,STOP_OPTION=nyears  </command>
 ---------------------------------------------------
2023-08-31 16:02:20: xmlchange success <command> ./xmlchange REST_OPTION=nyears,REST_N=1  </command>
 ---------------------------------------------------
2023-08-31 16:02:20: xmlchange success <command> ./xmlchange JOB_WALLCLOCK_TIME=12:00:00  </command>
 ---------------------------------------------------
2023-08-31 16:02:26: case.submit starting 1318502.desched1
 ---------------------------------------------------
2023-08-31 16:02:26: case.submit success 1318502.desched1
 ---------------------------------------------------
2023-08-31 16:02:58: case.run starting 1318501.desched1
 ---------------------------------------------------
2023-08-31 16:03:03: model execution starting 1318501.desched1
 ---------------------------------------------------
