2024-06-07 15:13:13: case.setup starting 
 ---------------------------------------------------
2024-06-07 15:13:18: case.setup success 
 ---------------------------------------------------
2024-06-07 15:13:35: xmlchange success <command> ./xmlchange --append CAM_CONFIG_OPTS=-rad rrtmgp  </command>
 ---------------------------------------------------
2024-06-07 15:14:03: case.setup starting 
 ---------------------------------------------------
2024-06-07 15:14:05: case.setup success 
 ---------------------------------------------------
2024-06-07 15:14:10: xmlchange success <command> ./xmlchange --append CAM_CONFIG_OPTS=-rad rrtmgp  </command>
 ---------------------------------------------------
2024-06-07 15:14:14: case.setup starting 
 ---------------------------------------------------
2024-06-07 15:14:16: case.setup success 
 ---------------------------------------------------
2024-06-07 15:14:21: xmlchange success <command> ./xmlchange --append CAM_CONFIG_OPTS=-rad rrtmgp  </command>
 ---------------------------------------------------
2024-06-07 15:24:34: case.build starting 
 ---------------------------------------------------
2024-06-07 15:43:17: case.build success 
 ---------------------------------------------------
2024-06-07 15:45:23: case.setup starting 
 ---------------------------------------------------
2024-06-07 15:45:26: case.setup success 
 ---------------------------------------------------
2024-06-07 15:47:01: build.clean starting 
 ---------------------------------------------------
2024-06-07 15:47:06: build.clean success 
 ---------------------------------------------------
2024-06-07 15:49:51: xmlchange success <command> ./xmlchange PROJECT=CESM0023,RESUBMIT=10,STOP_N=2,STOP_OPTION=nyears  </command>
 ---------------------------------------------------
2024-06-07 15:49:52: xmlchange success <command> ./xmlchange CHARGE_ACCOUNT=CESM0023  </command>
 ---------------------------------------------------
2024-06-07 15:50:00: case.submit starting 
 ---------------------------------------------------
2024-06-07 15:50:00: case.submit error 
ERROR: Build complete is not True please rebuild the model by calling case.build
 ---------------------------------------------------
2024-06-07 15:54:49: case.build starting 
 ---------------------------------------------------
2024-06-07 16:00:30: xmlchange success <command> ./xmlchange PROJECT=CESM0023,RESUBMIT=10,STOP_N=2,STOP_OPTION=nyears  </command>
 ---------------------------------------------------
2024-06-07 16:00:30: xmlchange success <command> ./xmlchange CHARGE_ACCOUNT=CESM0023  </command>
 ---------------------------------------------------
2024-06-07 16:00:30: xmlchange success <command> ./xmlchange REST_OPTION=nyears,REST_N=1  </command>
 ---------------------------------------------------
2024-06-07 16:00:31: xmlchange success <command> ./xmlchange JOB_WALLCLOCK_TIME=12:00:00 --subgroup case.run  </command>
 ---------------------------------------------------
2024-06-07 16:00:41: case.submit starting 
 ---------------------------------------------------
2024-06-07 16:00:41: case.submit error 
ERROR: Build complete is not True please rebuild the model by calling case.build
 ---------------------------------------------------
2024-06-07 16:04:53: case.build starting 
 ---------------------------------------------------
2024-06-07 16:06:30: case.build error 
ERROR: BUILD FAIL: clm.buildlib failed, cat /glade/derecho/scratch/hannay/b.e23_alpha17f.BLT1850.ne30_t232.098/bld/lnd.bldlog.240607-160453
 ---------------------------------------------------
2024-06-07 16:07:10: case.build starting 
 ---------------------------------------------------
2024-06-07 16:09:40: case.build error 
ERROR: BUILD FAIL: cam.buildlib failed, cat /glade/derecho/scratch/hannay/b.e23_alpha17f.BLT1850.ne30_t232.098/bld/atm.bldlog.240607-160710
 ---------------------------------------------------
2024-06-07 16:09:50: xmlchange success <command> ./xmlchange PROJECT=CESM0023,RESUBMIT=10,STOP_N=2,STOP_OPTION=nyears  </command>
 ---------------------------------------------------
2024-06-07 16:09:50: xmlchange success <command> ./xmlchange CHARGE_ACCOUNT=CESM0023  </command>
 ---------------------------------------------------
2024-06-07 16:09:51: xmlchange success <command> ./xmlchange REST_OPTION=nyears,REST_N=1  </command>
 ---------------------------------------------------
2024-06-07 16:09:51: xmlchange success <command> ./xmlchange JOB_WALLCLOCK_TIME=12:00:00 --subgroup case.run  </command>
 ---------------------------------------------------
2024-06-07 16:09:58: case.submit starting 
 ---------------------------------------------------
2024-06-07 16:09:58: case.submit error 
ERROR: Build complete is not True please rebuild the model by calling case.build
 ---------------------------------------------------
2024-06-07 16:13:04: case.build success 
 ---------------------------------------------------
2024-06-07 19:11:27: case.build starting 
 ---------------------------------------------------
2024-06-07 19:12:49: case.build success 
 ---------------------------------------------------
2024-06-07 19:12:56: case.submit starting 4759243.desched1
 ---------------------------------------------------
2024-06-07 19:12:56: case.submit success 4759243.desched1
 ---------------------------------------------------
2024-06-07 19:13:18: case.run starting 4759242.desched1
 ---------------------------------------------------
2024-06-07 19:13:33: model execution starting 4759242.desched1
 ---------------------------------------------------
2024-06-07 19:14:01: model execution success 4759242.desched1
 ---------------------------------------------------
2024-06-07 19:14:01: case.run error 
ERROR: Model did not complete - see /glade/derecho/scratch/hannay/b.e23_alpha17f.BLT1850.ne30_t232.098/run/med.log.4759242.desched1.240607-191318 
 
 ---------------------------------------------------
2024-06-07 19:16:13: xmlchange success <command> ./xmlchange MOM6_VERTICAL_GRID=hycom1  </command>
 ---------------------------------------------------
2024-06-07 19:16:33: xmlchange success <command> ./xmlchange PROJECT=CESM0023,RESUBMIT=10,STOP_N=2,STOP_OPTION=nyears  </command>
 ---------------------------------------------------
2024-06-07 19:16:34: xmlchange success <command> ./xmlchange CHARGE_ACCOUNT=CESM0023  </command>
 ---------------------------------------------------
2024-06-07 19:16:34: xmlchange success <command> ./xmlchange REST_OPTION=nyears,REST_N=1  </command>
 ---------------------------------------------------
2024-06-07 19:16:35: xmlchange success <command> ./xmlchange JOB_WALLCLOCK_TIME=12:00:00 --subgroup case.run  </command>
 ---------------------------------------------------
2024-06-07 19:16:41: case.submit starting 4759273.desched1
 ---------------------------------------------------
2024-06-07 19:16:41: case.submit success 4759273.desched1
 ---------------------------------------------------
2024-06-07 19:17:08: case.run starting 4759272.desched1
 ---------------------------------------------------
2024-06-07 19:17:17: model execution starting 4759272.desched1
 ---------------------------------------------------
2024-06-07 23:59:57: model execution success 4759272.desched1
 ---------------------------------------------------
2024-06-07 23:59:57: case.run success 4759272.desched1
 ---------------------------------------------------
2024-06-08 00:00:31: st_archive starting 4759273.desched1
 ---------------------------------------------------
2024-06-08 00:01:04: st_archive success 4759273.desched1
 ---------------------------------------------------
2024-06-08 00:01:06: case.submit starting 4762922.desched1
 ---------------------------------------------------
2024-06-08 00:01:06: case.submit success 4762922.desched1
 ---------------------------------------------------
2024-06-08 00:01:27: case.run starting 4762921.desched1
 ---------------------------------------------------
2024-06-08 00:01:36: model execution starting 4762921.desched1
 ---------------------------------------------------
2024-06-08 04:45:25: model execution success 4762921.desched1
 ---------------------------------------------------
2024-06-08 04:45:25: case.run success 4762921.desched1
 ---------------------------------------------------
2024-06-08 04:45:51: st_archive starting 4762922.desched1
 ---------------------------------------------------
2024-06-08 04:46:23: st_archive success 4762922.desched1
 ---------------------------------------------------
2024-06-08 04:46:28: case.submit starting 4766396.desched1
 ---------------------------------------------------
2024-06-08 04:46:28: case.submit success 4766396.desched1
 ---------------------------------------------------
2024-06-08 04:46:50: case.run starting 4766394.desched1
 ---------------------------------------------------
2024-06-08 04:47:00: model execution starting 4766394.desched1
 ---------------------------------------------------
2024-06-08 09:30:01: model execution success 4766394.desched1
 ---------------------------------------------------
2024-06-08 09:30:01: case.run success 4766394.desched1
 ---------------------------------------------------
2024-06-08 09:30:19: st_archive starting 4766396.desched1
 ---------------------------------------------------
2024-06-08 09:30:57: st_archive success 4766396.desched1
 ---------------------------------------------------
2024-06-08 09:30:57: case.submit starting 4770080.desched1
 ---------------------------------------------------
2024-06-08 09:30:57: case.submit success 4770080.desched1
 ---------------------------------------------------
2024-06-08 09:31:14: case.run starting 4770079.desched1
 ---------------------------------------------------
2024-06-08 09:31:21: model execution starting 4770079.desched1
 ---------------------------------------------------
2024-06-08 14:13:27: model execution success 4770079.desched1
 ---------------------------------------------------
2024-06-08 14:13:27: case.run success 4770079.desched1
 ---------------------------------------------------
2024-06-08 14:13:50: st_archive starting 4770080.desched1
 ---------------------------------------------------
2024-06-08 14:14:38: st_archive success 4770080.desched1
 ---------------------------------------------------
2024-06-08 14:14:39: case.submit starting 4773843.desched1
 ---------------------------------------------------
2024-06-08 14:14:39: case.submit success 4773843.desched1
 ---------------------------------------------------
2024-06-08 14:15:03: case.run starting 4773842.desched1
 ---------------------------------------------------
2024-06-08 14:15:15: model execution starting 4773842.desched1
 ---------------------------------------------------
2024-06-08 18:58:35: model execution success 4773842.desched1
 ---------------------------------------------------
2024-06-08 18:58:36: case.run success 4773842.desched1
 ---------------------------------------------------
2024-06-08 18:59:03: st_archive starting 4773843.desched1
 ---------------------------------------------------
2024-06-08 18:59:39: st_archive success 4773843.desched1
 ---------------------------------------------------
2024-06-08 18:59:41: case.submit starting 4776282.desched1
 ---------------------------------------------------
2024-06-08 18:59:41: case.submit success 4776282.desched1
 ---------------------------------------------------
2024-06-08 19:00:04: case.run starting 4776281.desched1
 ---------------------------------------------------
2024-06-08 19:00:23: model execution starting 4776281.desched1
 ---------------------------------------------------
2024-06-08 23:42:36: model execution success 4776281.desched1
 ---------------------------------------------------
2024-06-08 23:42:36: case.run success 4776281.desched1
 ---------------------------------------------------
2024-06-09 00:01:01: st_archive starting 4776282.desched1
 ---------------------------------------------------
2024-06-09 00:01:42: st_archive success 4776282.desched1
 ---------------------------------------------------
2024-06-09 00:01:42: case.submit starting 4778623.desched1
 ---------------------------------------------------
2024-06-09 00:01:42: case.submit success 4778623.desched1
 ---------------------------------------------------
2024-06-09 00:02:31: case.run starting 4778622.desched1
 ---------------------------------------------------
2024-06-09 00:02:46: model execution starting 4778622.desched1
 ---------------------------------------------------
2024-06-09 04:47:35: model execution success 4778622.desched1
 ---------------------------------------------------
2024-06-09 04:47:35: case.run success 4778622.desched1
 ---------------------------------------------------
2024-06-09 04:47:51: st_archive starting 4778623.desched1
 ---------------------------------------------------
2024-06-09 04:48:24: st_archive success 4778623.desched1
 ---------------------------------------------------
2024-06-09 04:48:26: case.submit starting 4780720.desched1
 ---------------------------------------------------
2024-06-09 04:48:26: case.submit success 4780720.desched1
 ---------------------------------------------------
2024-06-09 04:48:49: case.run starting 4780719.desched1
 ---------------------------------------------------
2024-06-09 04:48:55: model execution starting 4780719.desched1
 ---------------------------------------------------
2024-06-09 09:28:14: model execution success 4780719.desched1
 ---------------------------------------------------
2024-06-09 09:28:14: case.run success 4780719.desched1
 ---------------------------------------------------
2024-06-09 09:28:31: st_archive starting 4780720.desched1
 ---------------------------------------------------
2024-06-09 09:29:05: st_archive success 4780720.desched1
 ---------------------------------------------------
2024-06-09 09:29:06: case.submit starting 4782667.desched1
 ---------------------------------------------------
2024-06-09 09:29:06: case.submit success 4782667.desched1
 ---------------------------------------------------
2024-06-09 09:29:32: case.run starting 4782666.desched1
 ---------------------------------------------------
2024-06-09 09:29:44: model execution starting 4782666.desched1
 ---------------------------------------------------
2024-06-09 14:08:11: model execution success 4782666.desched1
 ---------------------------------------------------
2024-06-09 14:08:11: case.run success 4782666.desched1
 ---------------------------------------------------
2024-06-09 17:00:34: st_archive starting 4782667.desched1
 ---------------------------------------------------
2024-06-09 17:01:15: st_archive success 4782667.desched1
 ---------------------------------------------------
2024-06-09 17:01:16: case.submit starting 4786888.desched1
 ---------------------------------------------------
2024-06-09 17:01:16: case.submit success 4786888.desched1
 ---------------------------------------------------
2024-06-09 17:01:41: case.run starting 4786883.desched1
 ---------------------------------------------------
2024-06-09 17:01:51: model execution starting 4786883.desched1
 ---------------------------------------------------
2024-06-09 21:42:58: model execution success 4786883.desched1
 ---------------------------------------------------
2024-06-09 21:42:58: case.run success 4786883.desched1
 ---------------------------------------------------
2024-06-09 21:43:18: st_archive starting 4786888.desched1
 ---------------------------------------------------
2024-06-09 21:43:53: st_archive success 4786888.desched1
 ---------------------------------------------------
2024-06-09 21:43:55: case.submit starting 4791288.desched1
 ---------------------------------------------------
2024-06-09 21:43:55: case.submit success 4791288.desched1
 ---------------------------------------------------
2024-06-09 21:44:14: case.run starting 4791287.desched1
 ---------------------------------------------------
2024-06-09 21:44:25: model execution starting 4791287.desched1
 ---------------------------------------------------
2024-06-10 02:24:29: model execution success 4791287.desched1
 ---------------------------------------------------
2024-06-10 02:24:29: case.run success 4791287.desched1
 ---------------------------------------------------
2024-06-10 02:24:48: st_archive starting 4791288.desched1
 ---------------------------------------------------
2024-06-10 02:25:29: st_archive success 4791288.desched1
 ---------------------------------------------------
2024-06-10 11:10:50: xmlchange success <command> ./xmlchange RESUBMIT=10  </command>
 ---------------------------------------------------
2024-06-10 11:11:10: case.submit starting 4798770.desched1
 ---------------------------------------------------
2024-06-10 11:11:10: case.submit success 4798770.desched1
 ---------------------------------------------------
2024-06-10 11:11:27: case.run starting 4798769.desched1
 ---------------------------------------------------
2024-06-10 11:11:34: model execution starting 4798769.desched1
 ---------------------------------------------------
2024-06-10 15:51:03: model execution success 4798769.desched1
 ---------------------------------------------------
2024-06-10 15:51:03: case.run success 4798769.desched1
 ---------------------------------------------------
2024-06-10 15:51:27: st_archive starting 4798770.desched1
 ---------------------------------------------------
2024-06-10 15:52:06: st_archive success 4798770.desched1
 ---------------------------------------------------
2024-06-10 15:52:06: case.submit starting 4802120.desched1
 ---------------------------------------------------
2024-06-10 15:52:06: case.submit success 4802120.desched1
 ---------------------------------------------------
2024-06-10 15:52:27: case.run starting 4802119.desched1
 ---------------------------------------------------
2024-06-10 15:52:38: model execution starting 4802119.desched1
 ---------------------------------------------------
2024-06-10 20:33:49: model execution success 4802119.desched1
 ---------------------------------------------------
2024-06-10 20:33:49: case.run success 4802119.desched1
 ---------------------------------------------------
2024-06-10 20:34:37: st_archive starting 4802120.desched1
 ---------------------------------------------------
2024-06-10 20:35:23: st_archive success 4802120.desched1
 ---------------------------------------------------
2024-06-10 20:35:26: case.submit starting 4813685.desched1
 ---------------------------------------------------
2024-06-10 20:35:26: case.submit success 4813685.desched1
 ---------------------------------------------------
2024-06-11 19:55:51: case.run starting 4813684.desched1
 ---------------------------------------------------
2024-06-11 19:55:59: model execution starting 4813684.desched1
 ---------------------------------------------------
2024-06-12 00:34:36: model execution success 4813684.desched1
 ---------------------------------------------------
2024-06-12 00:34:36: case.run success 4813684.desched1
 ---------------------------------------------------
2024-06-12 00:34:54: st_archive starting 4813685.desched1
 ---------------------------------------------------
2024-06-12 00:35:26: st_archive success 4813685.desched1
 ---------------------------------------------------
2024-06-12 00:35:27: case.submit starting 4824414.desched1
 ---------------------------------------------------
2024-06-12 00:35:27: case.submit success 4824414.desched1
 ---------------------------------------------------
2024-06-12 00:35:43: case.run starting 4824413.desched1
 ---------------------------------------------------
2024-06-12 00:35:48: model execution starting 4824413.desched1
 ---------------------------------------------------
2024-06-12 05:13:05: model execution success 4824413.desched1
 ---------------------------------------------------
2024-06-12 05:13:05: case.run success 4824413.desched1
 ---------------------------------------------------
2024-06-12 05:13:21: st_archive starting 4824414.desched1
 ---------------------------------------------------
2024-06-12 05:13:52: st_archive success 4824414.desched1
 ---------------------------------------------------
2024-06-12 05:13:56: case.submit starting 4825922.desched1
 ---------------------------------------------------
2024-06-12 05:13:56: case.submit success 4825922.desched1
 ---------------------------------------------------
2024-06-12 05:14:09: case.run starting 4825921.desched1
 ---------------------------------------------------
2024-06-12 05:14:14: model execution starting 4825921.desched1
 ---------------------------------------------------
2024-06-12 09:50:56: model execution success 4825921.desched1
 ---------------------------------------------------
2024-06-12 09:50:56: case.run success 4825921.desched1
 ---------------------------------------------------
2024-06-12 09:51:16: st_archive starting 4825922.desched1
 ---------------------------------------------------
2024-06-12 09:51:47: st_archive success 4825922.desched1
 ---------------------------------------------------
2024-06-12 09:51:48: case.submit starting 4829216.desched1
 ---------------------------------------------------
2024-06-12 09:51:48: case.submit success 4829216.desched1
 ---------------------------------------------------
2024-06-12 09:52:02: case.run starting 4829215.desched1
 ---------------------------------------------------
2024-06-12 09:52:09: model execution starting 4829215.desched1
 ---------------------------------------------------
2024-06-12 13:12:11: xmlchange success <command> ./xmlchange RESUBMIT=15  </command>
 ---------------------------------------------------
2024-06-12 14:35:32: model execution success 4829215.desched1
 ---------------------------------------------------
2024-06-12 14:35:32: case.run success 4829215.desched1
 ---------------------------------------------------
2024-06-12 14:36:01: st_archive starting 4829216.desched1
 ---------------------------------------------------
2024-06-12 14:36:49: st_archive success 4829216.desched1
 ---------------------------------------------------
2024-06-12 14:36:49: case.submit starting 4832390.desched1
 ---------------------------------------------------
2024-06-12 14:36:49: case.submit success 4832390.desched1
 ---------------------------------------------------
2024-06-12 14:37:12: case.run starting 4832389.desched1
 ---------------------------------------------------
2024-06-12 14:37:22: model execution starting 4832389.desched1
 ---------------------------------------------------
2024-06-12 19:19:09: model execution success 4832389.desched1
 ---------------------------------------------------
2024-06-12 19:19:09: case.run success 4832389.desched1
 ---------------------------------------------------
2024-06-12 19:19:24: st_archive starting 4832390.desched1
 ---------------------------------------------------
2024-06-12 19:19:58: st_archive success 4832390.desched1
 ---------------------------------------------------
2024-06-12 19:19:58: case.submit starting 4835624.desched1
 ---------------------------------------------------
2024-06-12 19:19:58: case.submit success 4835624.desched1
 ---------------------------------------------------
2024-06-12 19:20:18: case.run starting 4835623.desched1
 ---------------------------------------------------
2024-06-12 19:20:22: model execution starting 4835623.desched1
 ---------------------------------------------------
2024-06-12 23:58:16: model execution success 4835623.desched1
 ---------------------------------------------------
2024-06-12 23:58:16: case.run success 4835623.desched1
 ---------------------------------------------------
2024-06-12 23:58:30: st_archive starting 4835624.desched1
 ---------------------------------------------------
2024-06-12 23:59:01: st_archive success 4835624.desched1
 ---------------------------------------------------
2024-06-12 23:59:01: case.submit starting 4838390.desched1
 ---------------------------------------------------
2024-06-12 23:59:01: case.submit success 4838390.desched1
 ---------------------------------------------------
2024-06-12 23:59:16: case.run starting 4838389.desched1
 ---------------------------------------------------
2024-06-12 23:59:22: model execution starting 4838389.desched1
 ---------------------------------------------------
2024-06-13 04:39:06: model execution success 4838389.desched1
 ---------------------------------------------------
2024-06-13 04:39:06: case.run success 4838389.desched1
 ---------------------------------------------------
2024-06-13 04:39:19: st_archive starting 4838390.desched1
 ---------------------------------------------------
2024-06-13 04:39:51: st_archive success 4838390.desched1
 ---------------------------------------------------
2024-06-13 04:39:55: case.submit starting 4840026.desched1
 ---------------------------------------------------
2024-06-13 04:39:55: case.submit success 4840026.desched1
 ---------------------------------------------------
2024-06-13 04:40:09: case.run starting 4840025.desched1
 ---------------------------------------------------
2024-06-13 04:40:15: model execution starting 4840025.desched1
 ---------------------------------------------------
2024-06-13 09:17:26: model execution success 4840025.desched1
 ---------------------------------------------------
2024-06-13 09:17:26: case.run success 4840025.desched1
 ---------------------------------------------------
2024-06-13 09:17:43: st_archive starting 4840026.desched1
 ---------------------------------------------------
2024-06-13 09:18:13: st_archive success 4840026.desched1
 ---------------------------------------------------
2024-06-13 09:18:15: case.submit starting 4841399.desched1
 ---------------------------------------------------
2024-06-13 09:18:15: case.submit success 4841399.desched1
 ---------------------------------------------------
2024-06-13 09:20:34: case.run starting 4841398.desched1
 ---------------------------------------------------
2024-06-13 09:20:42: model execution starting 4841398.desched1
 ---------------------------------------------------
2024-06-13 13:59:49: model execution success 4841398.desched1
 ---------------------------------------------------
2024-06-13 13:59:50: case.run success 4841398.desched1
 ---------------------------------------------------
2024-06-13 14:00:08: st_archive starting 4841399.desched1
 ---------------------------------------------------
2024-06-13 14:00:42: st_archive success 4841399.desched1
 ---------------------------------------------------
2024-06-13 14:00:46: case.submit starting 4844641.desched1
 ---------------------------------------------------
2024-06-13 14:00:46: case.submit success 4844641.desched1
 ---------------------------------------------------
2024-06-13 14:02:36: case.run starting 4844640.desched1
 ---------------------------------------------------
2024-06-13 14:03:27: model execution starting 4844640.desched1
 ---------------------------------------------------
2024-06-13 18:42:51: model execution success 4844640.desched1
 ---------------------------------------------------
2024-06-13 18:42:52: case.run success 4844640.desched1
 ---------------------------------------------------
2024-06-13 18:43:08: st_archive starting 4844641.desched1
 ---------------------------------------------------
2024-06-13 18:43:39: st_archive success 4844641.desched1
 ---------------------------------------------------
2024-06-13 18:43:39: case.submit starting 4847737.desched1
 ---------------------------------------------------
2024-06-13 18:43:39: case.submit success 4847737.desched1
 ---------------------------------------------------
2024-06-13 18:43:57: case.run starting 4847736.desched1
 ---------------------------------------------------
2024-06-13 18:44:03: model execution starting 4847736.desched1
 ---------------------------------------------------
2024-06-13 23:26:30: model execution success 4847736.desched1
 ---------------------------------------------------
2024-06-13 23:26:30: case.run success 4847736.desched1
 ---------------------------------------------------
2024-06-14 01:43:12: st_archive starting 4847737.desched1
 ---------------------------------------------------
2024-06-14 01:43:49: st_archive success 4847737.desched1
 ---------------------------------------------------
2024-06-14 01:43:49: case.submit starting 4850634.desched1
 ---------------------------------------------------
2024-06-14 01:43:49: case.submit success 4850634.desched1
 ---------------------------------------------------
2024-06-14 02:32:12: case.run starting 4850633.desched1
 ---------------------------------------------------
2024-06-14 02:32:18: model execution starting 4850633.desched1
 ---------------------------------------------------
2024-06-14 07:10:18: model execution success 4850633.desched1
 ---------------------------------------------------
2024-06-14 07:10:18: case.run success 4850633.desched1
 ---------------------------------------------------
2024-06-14 07:18:42: st_archive starting 4850634.desched1
 ---------------------------------------------------
2024-06-14 07:19:11: st_archive success 4850634.desched1
 ---------------------------------------------------
2024-06-14 07:19:11: case.submit starting 4852816.desched1
 ---------------------------------------------------
2024-06-14 07:19:11: case.submit success 4852816.desched1
 ---------------------------------------------------
2024-06-14 07:38:02: case.run starting 4852815.desched1
 ---------------------------------------------------
2024-06-14 07:38:08: model execution starting 4852815.desched1
 ---------------------------------------------------
2024-06-14 12:18:27: model execution success 4852815.desched1
 ---------------------------------------------------
2024-06-14 12:18:27: case.run success 4852815.desched1
 ---------------------------------------------------