2024-03-04 16:23:34: case.setup starting 
 ---------------------------------------------------
2024-03-04 16:23:36: case.setup success 
 ---------------------------------------------------
2024-03-04 16:23:42: xmlchange success <command> ./xmlchange RUN_REFCASE=b.e23_alpha16g.BLT1850.ne30_t232.075  </command>
 ---------------------------------------------------
2024-03-04 16:23:42: xmlchange success <command> ./xmlchange RUN_REFDATE=0101-01-01  </command>
 ---------------------------------------------------
2024-03-04 16:23:43: xmlchange success <command> ./xmlchange RUN_TYPE=hybrid  </command>
 ---------------------------------------------------
2024-03-04 16:23:43: xmlchange success <command> ./xmlchange GET_REFCASE=true  </command>
 ---------------------------------------------------
2024-03-04 16:23:43: xmlchange success <command> ./xmlchange RUN_REFDIR=cesm2_init  </command>
 ---------------------------------------------------
2024-03-04 16:24:05: case.build starting 
 ---------------------------------------------------
2024-03-04 16:25:50: case.build starting 
 ---------------------------------------------------
2024-03-04 16:27:05: xmlchange success <command> ./xmlchange JOB_WALLCLOCK_TIME=12:00:00  </command>
 ---------------------------------------------------
2024-03-04 16:27:06: case.submit starting 
 ---------------------------------------------------
2024-03-04 16:27:06: case.submit error 

 ---------------------------------------------------
2024-03-04 16:27:13: case.build error 
ERROR: /glade/work/hannay/cesm_tags/cesm2_3_alpha16g/libraries/FMS/buildlib FAILED, cat /glade/derecho/scratch/hannay/b.e23_alpha16g.BLT1850.ne30_t232.078c/bld/FMS.bldlog.240304-162550
 ---------------------------------------------------
2024-03-04 16:27:47: case.build starting 
 ---------------------------------------------------
2024-03-04 16:29:58: case.setup starting 
 ---------------------------------------------------
2024-03-04 16:30:00: case.setup success 
 ---------------------------------------------------
2024-03-04 16:30:31: build.clean starting 
 ---------------------------------------------------
2024-03-04 16:30:36: case.build error 
ERROR: BUILD FAIL: clm.buildlib failed, cat /glade/derecho/scratch/hannay/b.e23_alpha16g.BLT1850.ne30_t232.078c/bld/lnd.bldlog.240304-162747
 ---------------------------------------------------
2024-03-04 16:30:36: case.build error 
ERROR: BUILD FAIL: clm.buildlib failed, cat /glade/derecho/scratch/hannay/b.e23_alpha16g.BLT1850.ne30_t232.078c/bld/lnd.bldlog.240304-162406
 ---------------------------------------------------
2024-03-04 16:30:40: build.clean success 
 ---------------------------------------------------
2024-03-04 16:30:57: case.build starting 
 ---------------------------------------------------
2024-03-04 16:39:14: case.build success 
 ---------------------------------------------------
2024-03-04 16:39:15: xmlchange success <command> ./xmlchange PROJECT=CESM0023,RESUBMIT=24,STOP_N=2,STOP_OPTION=nyears  </command>
 ---------------------------------------------------
2024-03-04 16:39:16: xmlchange success <command> ./xmlchange REST_OPTION=nyears,REST_N=1  </command>
 ---------------------------------------------------
2024-03-04 16:41:28: xmlchange success <command> ./xmlchange JOB_WALLCLOCK_TIME=12:00:00  </command>
 ---------------------------------------------------
2024-03-04 16:41:40: xmlchange success <command> ./xmlchange PROJECT=CESM0023,RESUBMIT=24,STOP_N=2,STOP_OPTION=nyears  </command>
 ---------------------------------------------------
2024-03-04 16:41:40: xmlchange success <command> ./xmlchange REST_OPTION=nyears,REST_N=1  </command>
 ---------------------------------------------------
2024-03-04 16:41:41: xmlchange success <command> ./xmlchange JOB_WALLCLOCK_TIME=12:00:00  </command>
 ---------------------------------------------------
2024-03-04 16:41:48: case.submit starting 3704672.desched1
 ---------------------------------------------------
2024-03-04 16:41:48: case.submit success 3704672.desched1
 ---------------------------------------------------
2024-03-04 16:42:24: case.run starting 3704671.desched1
 ---------------------------------------------------
2024-03-04 16:42:31: model execution starting 3704671.desched1
 ---------------------------------------------------
2024-03-04 21:16:35: model execution success 3704671.desched1
 ---------------------------------------------------
2024-03-04 21:16:36: case.run success 3704671.desched1
 ---------------------------------------------------
2024-03-04 21:17:03: st_archive starting 3704672.desched1
 ---------------------------------------------------
2024-03-04 21:17:46: st_archive success 3704672.desched1
 ---------------------------------------------------
2024-03-04 21:17:47: case.submit starting 3706620.desched1
 ---------------------------------------------------
2024-03-04 21:17:47: case.submit success 3706620.desched1
 ---------------------------------------------------
2024-03-04 21:18:07: case.run starting 3706619.desched1
 ---------------------------------------------------
2024-03-04 21:18:15: model execution starting 3706619.desched1
 ---------------------------------------------------
2024-03-05 01:51:30: model execution success 3706619.desched1
 ---------------------------------------------------
2024-03-05 01:51:30: case.run success 3706619.desched1
 ---------------------------------------------------
2024-03-05 01:51:59: st_archive starting 3706620.desched1
 ---------------------------------------------------
2024-03-05 01:52:30: st_archive success 3706620.desched1
 ---------------------------------------------------
2024-03-05 01:52:31: case.submit starting 3707562.desched1
 ---------------------------------------------------
2024-03-05 01:52:31: case.submit success 3707562.desched1
 ---------------------------------------------------
2024-03-05 01:53:02: case.run starting 3707561.desched1
 ---------------------------------------------------
2024-03-05 01:53:15: model execution starting 3707561.desched1
 ---------------------------------------------------
2024-03-05 06:24:44: model execution success 3707561.desched1
 ---------------------------------------------------
2024-03-05 06:24:44: case.run success 3707561.desched1
 ---------------------------------------------------
2024-03-05 06:25:02: st_archive starting 3707562.desched1
 ---------------------------------------------------
2024-03-05 06:25:32: st_archive success 3707562.desched1
 ---------------------------------------------------
2024-03-05 06:25:39: case.submit starting 3708157.desched1
 ---------------------------------------------------
2024-03-05 06:25:39: case.submit success 3708157.desched1
 ---------------------------------------------------
2024-03-05 06:25:53: case.run starting 3708155.desched1
 ---------------------------------------------------
2024-03-05 06:26:00: model execution starting 3708155.desched1
 ---------------------------------------------------
2024-03-05 10:59:03: model execution success 3708155.desched1
 ---------------------------------------------------
2024-03-05 10:59:04: case.run success 3708155.desched1
 ---------------------------------------------------
2024-03-05 10:59:26: st_archive starting 3708157.desched1
 ---------------------------------------------------
2024-03-05 11:00:01: st_archive success 3708157.desched1
 ---------------------------------------------------
2024-03-05 11:00:13: case.submit starting 3711633.desched1
 ---------------------------------------------------
2024-03-05 11:00:13: case.submit success 3711633.desched1
 ---------------------------------------------------
2024-03-05 11:06:36: case.run starting 3711631.desched1
 ---------------------------------------------------
2024-03-05 11:06:43: model execution starting 3711631.desched1
 ---------------------------------------------------
2024-03-06 11:25:52: case.submit starting 3728053.desched1
 ---------------------------------------------------
2024-03-06 11:25:52: case.submit success 3728053.desched1
 ---------------------------------------------------
2024-03-06 11:26:57: case.run starting 3728052.desched1
 ---------------------------------------------------
2024-03-06 11:27:06: model execution starting 3728052.desched1
 ---------------------------------------------------
2024-03-06 16:01:09: model execution success 3728052.desched1
 ---------------------------------------------------
2024-03-06 16:01:09: case.run success 3728052.desched1
 ---------------------------------------------------
2024-03-06 16:07:56: st_archive starting 3728053.desched1
 ---------------------------------------------------
2024-03-06 16:12:07: st_archive success 3728053.desched1
 ---------------------------------------------------
2024-03-06 16:13:47: case.submit starting 3732801.desched1
 ---------------------------------------------------
2024-03-06 16:13:47: case.submit success 3732801.desched1
 ---------------------------------------------------
2024-03-06 16:19:59: case.run starting 3732791.desched1
 ---------------------------------------------------
2024-03-06 16:20:07: model execution starting 3732791.desched1
 ---------------------------------------------------
2024-03-06 20:53:18: model execution success 3732791.desched1
 ---------------------------------------------------
2024-03-06 20:53:19: case.run success 3732791.desched1
 ---------------------------------------------------
2024-03-06 20:53:49: st_archive starting 3732801.desched1
 ---------------------------------------------------
2024-03-06 20:54:32: st_archive success 3732801.desched1
 ---------------------------------------------------
2024-03-06 20:54:38: case.submit starting 3734285.desched1
 ---------------------------------------------------
2024-03-06 20:54:38: case.submit success 3734285.desched1
 ---------------------------------------------------
2024-03-06 20:54:55: case.run starting 3734284.desched1
 ---------------------------------------------------
2024-03-06 20:55:04: model execution starting 3734284.desched1
 ---------------------------------------------------
2024-03-07 01:31:09: model execution success 3734284.desched1
 ---------------------------------------------------
2024-03-07 01:31:09: case.run success 3734284.desched1
 ---------------------------------------------------
2024-03-07 01:31:34: st_archive starting 3734285.desched1
 ---------------------------------------------------
2024-03-07 01:32:03: st_archive success 3734285.desched1
 ---------------------------------------------------
2024-03-07 01:32:11: case.submit starting 3735541.desched1
 ---------------------------------------------------
2024-03-07 01:32:11: case.submit success 3735541.desched1
 ---------------------------------------------------
2024-03-07 01:32:42: case.run starting 3735540.desched1
 ---------------------------------------------------
2024-03-07 01:32:49: model execution starting 3735540.desched1
 ---------------------------------------------------
2024-03-07 06:02:23: model execution success 3735540.desched1
 ---------------------------------------------------
2024-03-07 06:02:23: case.run success 3735540.desched1
 ---------------------------------------------------
2024-03-07 06:02:45: st_archive starting 3735541.desched1
 ---------------------------------------------------
2024-03-07 06:03:15: st_archive success 3735541.desched1
 ---------------------------------------------------
2024-03-07 06:03:16: case.submit starting 3736656.desched1
 ---------------------------------------------------
2024-03-07 06:03:16: case.submit success 3736656.desched1
 ---------------------------------------------------
2024-03-07 06:03:48: case.run starting 3736655.desched1
 ---------------------------------------------------
2024-03-07 06:03:56: model execution starting 3736655.desched1
 ---------------------------------------------------
2024-03-07 10:17:07: xmlchange success <command> ./xmlchange RESUBMIT=0  </command>
 ---------------------------------------------------
2024-03-07 10:36:02: model execution success 3736655.desched1
 ---------------------------------------------------
2024-03-07 10:36:02: case.run success 3736655.desched1
 ---------------------------------------------------
2024-03-07 10:37:34: st_archive starting 3736656.desched1
 ---------------------------------------------------
2024-03-07 10:38:04: st_archive success 3736656.desched1
 ---------------------------------------------------
