2024-06-26 09:57:30: xmlchange success <command> ./xmlchange --append CAM_CONFIG_OPTS=-rad rrtmgp  </command>
 ---------------------------------------------------
2024-06-26 09:57:30: case.setup starting 
 ---------------------------------------------------
2024-06-26 09:57:34: case.setup success 
 ---------------------------------------------------
2024-06-26 09:57:42: xmlchange success <command> ./xmlchange RUN_TYPE=hybrid  </command>
 ---------------------------------------------------
2024-06-26 09:57:42: xmlchange success <command> ./xmlchange RUN_REFCASE=b.e23_alpha17f.BLT1850.ne30_t232.098  </command>
 ---------------------------------------------------
2024-06-26 09:57:43: xmlchange success <command> ./xmlchange RUN_REFDATE=0125-01-01  </command>
 ---------------------------------------------------
2024-06-26 09:57:43: xmlchange success <command> ./xmlchange GET_REFCASE=TRUE  </command>
 ---------------------------------------------------
2024-06-26 09:57:43: xmlchange success <command> ./xmlchange RUN_REFDIR=cesm2_init  </command>
 ---------------------------------------------------
2024-06-26 09:57:44: xmlchange success <command> ./xmlchange MOM6_VERTICAL_GRID=hycom1  </command>
 ---------------------------------------------------
2024-06-26 09:58:15: case.build starting 
 ---------------------------------------------------
2024-06-26 09:58:27: case.build error 
ERROR: Could not download refcase from any server
 ---------------------------------------------------
2024-06-26 10:00:41: case.build starting 
 ---------------------------------------------------
2024-06-26 10:15:51: case.build success 
 ---------------------------------------------------
2024-06-26 10:15:53: xmlchange success <command> ./xmlchange PROJECT=CESM0023,RESUBMIT=50,STOP_N=2,STOP_OPTION=nyears  </command>
 ---------------------------------------------------
2024-06-26 10:15:53: xmlchange success <command> ./xmlchange CHARGE_ACCOUNT=CESM0023  </command>
 ---------------------------------------------------
2024-06-26 10:15:54: xmlchange success <command> ./xmlchange REST_OPTION=nyears,REST_N=1  </command>
 ---------------------------------------------------
2024-06-26 10:52:13: xmlchange success <command> ./xmlchange JOB_WALLCLOCK_TIME=12:00:00 --subgroup case.run  </command>
 ---------------------------------------------------
2024-06-26 10:52:38: case.submit starting 4956499.desched1
 ---------------------------------------------------
2024-06-26 10:52:38: case.submit success 4956499.desched1
 ---------------------------------------------------
2024-06-26 10:53:05: case.run starting 4956498.desched1
 ---------------------------------------------------
2024-06-26 10:53:16: model execution starting 4956498.desched1
 ---------------------------------------------------
2024-06-26 16:25:30: model execution success 4956498.desched1
 ---------------------------------------------------
2024-06-26 16:25:30: case.run success 4956498.desched1
 ---------------------------------------------------
2024-06-26 16:25:59: st_archive starting 4956499.desched1
 ---------------------------------------------------
2024-06-26 16:26:41: st_archive success 4956499.desched1
 ---------------------------------------------------
2024-06-26 16:26:41: case.submit starting 4959664.desched1
 ---------------------------------------------------
2024-06-26 16:26:41: case.submit success 4959664.desched1
 ---------------------------------------------------
2024-06-26 16:29:27: case.run starting 4959663.desched1
 ---------------------------------------------------
2024-06-26 16:29:38: model execution starting 4959663.desched1
 ---------------------------------------------------
2024-06-26 22:06:30: model execution success 4959663.desched1
 ---------------------------------------------------
2024-06-26 22:06:30: case.run success 4959663.desched1
 ---------------------------------------------------
2024-06-26 22:07:06: st_archive starting 4959664.desched1
 ---------------------------------------------------
2024-06-26 22:07:54: st_archive success 4959664.desched1
 ---------------------------------------------------
2024-06-26 22:07:55: case.submit starting 4961020.desched1
 ---------------------------------------------------
2024-06-26 22:07:55: case.submit success 4961020.desched1
 ---------------------------------------------------
2024-06-26 22:08:25: case.run starting 4961019.desched1
 ---------------------------------------------------
2024-06-26 22:08:42: model execution starting 4961019.desched1
 ---------------------------------------------------
2024-06-27 03:43:23: model execution success 4961019.desched1
 ---------------------------------------------------
2024-06-27 03:43:23: case.run success 4961019.desched1
 ---------------------------------------------------
2024-06-27 03:43:39: st_archive starting 4961020.desched1
 ---------------------------------------------------
2024-06-27 03:44:17: st_archive success 4961020.desched1
 ---------------------------------------------------
2024-06-27 03:44:18: case.submit starting 4961982.desched1
 ---------------------------------------------------
2024-06-27 03:44:18: case.submit success 4961982.desched1
 ---------------------------------------------------
2024-06-27 03:44:34: case.run starting 4961981.desched1
 ---------------------------------------------------
2024-06-27 03:44:45: model execution starting 4961981.desched1
 ---------------------------------------------------
2024-06-27 09:21:11: model execution success 4961981.desched1
 ---------------------------------------------------
2024-06-27 09:21:11: case.run success 4961981.desched1
 ---------------------------------------------------
2024-06-27 09:21:39: st_archive starting 4961982.desched1
 ---------------------------------------------------
2024-06-27 09:22:28: st_archive success 4961982.desched1
 ---------------------------------------------------
2024-06-27 09:22:28: case.submit starting 4963645.desched1
 ---------------------------------------------------
2024-06-27 09:22:28: case.submit success 4963645.desched1
 ---------------------------------------------------
2024-06-27 09:22:44: case.run starting 4963644.desched1
 ---------------------------------------------------
2024-06-27 09:22:48: model execution starting 4963644.desched1
 ---------------------------------------------------
2024-06-27 14:49:40: model execution success 4963644.desched1
 ---------------------------------------------------
2024-06-27 14:49:40: case.run success 4963644.desched1
 ---------------------------------------------------
2024-06-27 14:49:59: st_archive starting 4963645.desched1
 ---------------------------------------------------
2024-06-27 14:50:44: st_archive success 4963645.desched1
 ---------------------------------------------------
2024-06-27 14:50:45: case.submit starting 4966770.desched1
 ---------------------------------------------------
2024-06-27 14:50:45: case.submit success 4966770.desched1
 ---------------------------------------------------
2024-06-27 14:51:22: case.run starting 4966769.desched1
 ---------------------------------------------------
2024-06-27 14:51:32: model execution starting 4966769.desched1
 ---------------------------------------------------
2024-06-27 20:10:53: model execution success 4966769.desched1
 ---------------------------------------------------
2024-06-27 20:10:53: case.run success 4966769.desched1
 ---------------------------------------------------
2024-06-27 20:40:30: st_archive starting 4966770.desched1
 ---------------------------------------------------
2024-06-27 20:41:09: st_archive success 4966770.desched1
 ---------------------------------------------------
2024-06-27 20:41:10: case.submit starting 4971143.desched1
 ---------------------------------------------------
2024-06-27 20:41:10: case.submit success 4971143.desched1
 ---------------------------------------------------
2024-06-27 20:42:24: case.run starting 4971142.desched1
 ---------------------------------------------------
2024-06-27 20:42:39: model execution starting 4971142.desched1
 ---------------------------------------------------
2024-06-28 02:07:30: model execution success 4971142.desched1
 ---------------------------------------------------
2024-06-28 02:07:30: case.run success 4971142.desched1
 ---------------------------------------------------
2024-06-28 02:07:51: st_archive starting 4971143.desched1
 ---------------------------------------------------
2024-06-28 02:08:34: st_archive success 4971143.desched1
 ---------------------------------------------------
2024-06-28 02:08:35: case.submit starting 4972530.desched1
 ---------------------------------------------------
2024-06-28 02:08:35: case.submit success 4972530.desched1
 ---------------------------------------------------
2024-06-28 02:09:07: case.run starting 4972529.desched1
 ---------------------------------------------------
2024-06-28 02:09:21: model execution starting 4972529.desched1
 ---------------------------------------------------
2024-06-28 07:31:10: model execution success 4972529.desched1
 ---------------------------------------------------
2024-06-28 07:31:10: case.run success 4972529.desched1
 ---------------------------------------------------
2024-06-28 07:31:30: st_archive starting 4972530.desched1
 ---------------------------------------------------
2024-06-28 07:32:08: st_archive success 4972530.desched1
 ---------------------------------------------------
2024-06-28 07:32:09: case.submit starting 4974131.desched1
 ---------------------------------------------------
2024-06-28 07:32:09: case.submit success 4974131.desched1
 ---------------------------------------------------
2024-06-28 07:32:24: case.run starting 4974130.desched1
 ---------------------------------------------------
2024-06-28 07:32:30: model execution starting 4974130.desched1
 ---------------------------------------------------
2024-06-28 13:03:11: model execution success 4974130.desched1
 ---------------------------------------------------
2024-06-28 13:03:11: case.run success 4974130.desched1
 ---------------------------------------------------
2024-06-28 13:03:31: st_archive starting 4974131.desched1
 ---------------------------------------------------
2024-06-28 13:04:17: st_archive success 4974131.desched1
 ---------------------------------------------------
2024-06-28 13:04:18: case.submit starting 4977603.desched1
 ---------------------------------------------------
2024-06-28 13:04:18: case.submit success 4977603.desched1
 ---------------------------------------------------
2024-06-28 13:04:43: case.run starting 4977602.desched1
 ---------------------------------------------------
2024-06-28 13:05:02: model execution starting 4977602.desched1
 ---------------------------------------------------
2024-06-28 18:30:21: model execution success 4977602.desched1
 ---------------------------------------------------
2024-06-28 18:30:21: case.run success 4977602.desched1
 ---------------------------------------------------
2024-06-28 18:30:48: st_archive starting 4977603.desched1
 ---------------------------------------------------
2024-06-28 18:31:28: st_archive success 4977603.desched1
 ---------------------------------------------------
2024-06-28 18:31:28: case.submit starting 4981520.desched1
 ---------------------------------------------------
2024-06-28 18:31:28: case.submit success 4981520.desched1
 ---------------------------------------------------
2024-06-28 18:32:22: case.run starting 4981519.desched1
 ---------------------------------------------------
2024-06-28 18:32:35: model execution starting 4981519.desched1
 ---------------------------------------------------
2024-06-28 23:50:55: model execution success 4981519.desched1
 ---------------------------------------------------
2024-06-28 23:50:55: case.run success 4981519.desched1
 ---------------------------------------------------
2024-06-28 23:51:17: st_archive starting 4981520.desched1
 ---------------------------------------------------
2024-06-28 23:52:01: st_archive success 4981520.desched1
 ---------------------------------------------------
2024-06-28 23:52:01: case.submit starting 4983050.desched1
 ---------------------------------------------------
2024-06-28 23:52:01: case.submit success 4983050.desched1
 ---------------------------------------------------
2024-06-28 23:52:21: case.run starting 4983049.desched1
 ---------------------------------------------------
2024-06-28 23:52:28: model execution starting 4983049.desched1
 ---------------------------------------------------
2024-06-29 05:05:43: model execution success 4983049.desched1
 ---------------------------------------------------
2024-06-29 05:05:43: case.run success 4983049.desched1
 ---------------------------------------------------
2024-06-29 05:06:03: st_archive starting 4983050.desched1
 ---------------------------------------------------
2024-06-29 05:06:52: st_archive success 4983050.desched1
 ---------------------------------------------------
2024-06-29 05:06:56: case.submit starting 4984580.desched1
 ---------------------------------------------------
2024-06-29 05:06:56: case.submit success 4984580.desched1
 ---------------------------------------------------
2024-06-29 05:07:30: case.run starting 4984579.desched1
 ---------------------------------------------------
2024-06-29 05:07:38: model execution starting 4984579.desched1
 ---------------------------------------------------
2024-06-29 10:22:44: model execution success 4984579.desched1
 ---------------------------------------------------
2024-06-29 10:22:44: case.run success 4984579.desched1
 ---------------------------------------------------
2024-06-29 10:23:02: st_archive starting 4984580.desched1
 ---------------------------------------------------
2024-06-29 10:23:46: st_archive success 4984580.desched1
 ---------------------------------------------------
2024-06-29 10:23:46: case.submit starting 4987065.desched1
 ---------------------------------------------------
2024-06-29 10:23:46: case.submit success 4987065.desched1
 ---------------------------------------------------
2024-06-29 10:24:05: case.run starting 4987064.desched1
 ---------------------------------------------------
2024-06-29 10:24:12: model execution starting 4987064.desched1
 ---------------------------------------------------
2024-06-29 15:37:00: model execution success 4987064.desched1
 ---------------------------------------------------
2024-06-29 15:37:00: case.run success 4987064.desched1
 ---------------------------------------------------
2024-06-29 15:37:21: st_archive starting 4987065.desched1
 ---------------------------------------------------
2024-06-29 15:38:08: st_archive success 4987065.desched1
 ---------------------------------------------------
2024-06-29 15:38:09: case.submit starting 4988671.desched1
 ---------------------------------------------------
2024-06-29 15:38:09: case.submit success 4988671.desched1
 ---------------------------------------------------
2024-06-29 15:38:26: case.run starting 4988670.desched1
 ---------------------------------------------------
2024-06-29 15:38:35: model execution starting 4988670.desched1
 ---------------------------------------------------
2024-06-29 20:50:26: model execution success 4988670.desched1
 ---------------------------------------------------
2024-06-29 20:50:27: case.run success 4988670.desched1
 ---------------------------------------------------
2024-06-29 20:50:48: st_archive starting 4988671.desched1
 ---------------------------------------------------
2024-06-29 20:51:31: st_archive success 4988671.desched1
 ---------------------------------------------------
2024-06-29 20:51:31: case.submit starting 4989973.desched1
 ---------------------------------------------------
2024-06-29 20:51:31: case.submit success 4989973.desched1
 ---------------------------------------------------
2024-06-29 20:51:50: case.run starting 4989972.desched1
 ---------------------------------------------------
2024-06-29 20:51:55: model execution starting 4989972.desched1
 ---------------------------------------------------
2024-06-30 02:05:05: model execution success 4989972.desched1
 ---------------------------------------------------
2024-06-30 02:05:06: case.run success 4989972.desched1
 ---------------------------------------------------
2024-06-30 02:05:27: st_archive starting 4989973.desched1
 ---------------------------------------------------
2024-06-30 02:06:17: st_archive success 4989973.desched1
 ---------------------------------------------------
2024-06-30 02:06:18: case.submit starting 4990788.desched1
 ---------------------------------------------------
2024-06-30 02:06:18: case.submit success 4990788.desched1
 ---------------------------------------------------
2024-06-30 02:06:38: case.run starting 4990787.desched1
 ---------------------------------------------------
2024-06-30 02:06:45: model execution starting 4990787.desched1
 ---------------------------------------------------
2024-06-30 07:19:49: model execution success 4990787.desched1
 ---------------------------------------------------
2024-06-30 07:19:49: case.run success 4990787.desched1
 ---------------------------------------------------
2024-06-30 07:20:07: st_archive starting 4990788.desched1
 ---------------------------------------------------
2024-06-30 07:20:53: st_archive success 4990788.desched1
 ---------------------------------------------------
2024-06-30 07:20:55: case.submit starting 4991426.desched1
 ---------------------------------------------------
2024-06-30 07:20:55: case.submit success 4991426.desched1
 ---------------------------------------------------
2024-06-30 07:21:14: case.run starting 4991425.desched1
 ---------------------------------------------------
2024-06-30 07:21:21: model execution starting 4991425.desched1
 ---------------------------------------------------
2024-06-30 12:33:11: model execution success 4991425.desched1
 ---------------------------------------------------
2024-06-30 12:33:11: case.run success 4991425.desched1
 ---------------------------------------------------
2024-06-30 12:33:32: st_archive starting 4991426.desched1
 ---------------------------------------------------
2024-06-30 12:34:18: st_archive success 4991426.desched1
 ---------------------------------------------------
2024-06-30 12:34:19: case.submit starting 4992402.desched1
 ---------------------------------------------------
2024-06-30 12:34:19: case.submit success 4992402.desched1
 ---------------------------------------------------
2024-06-30 12:34:35: case.run starting 4992401.desched1
 ---------------------------------------------------
2024-06-30 12:34:40: model execution starting 4992401.desched1
 ---------------------------------------------------
2024-06-30 17:49:35: model execution success 4992401.desched1
 ---------------------------------------------------
2024-06-30 17:49:35: case.run success 4992401.desched1
 ---------------------------------------------------
2024-06-30 17:49:57: st_archive starting 4992402.desched1
 ---------------------------------------------------
2024-06-30 17:50:40: st_archive success 4992402.desched1
 ---------------------------------------------------
2024-06-30 17:50:40: case.submit starting 4993591.desched1
 ---------------------------------------------------
2024-06-30 17:50:40: case.submit success 4993591.desched1
 ---------------------------------------------------
2024-06-30 17:51:21: case.run starting 4993590.desched1
 ---------------------------------------------------
2024-06-30 17:51:28: model execution starting 4993590.desched1
 ---------------------------------------------------
2024-06-30 23:02:36: model execution success 4993590.desched1
 ---------------------------------------------------
2024-06-30 23:02:36: case.run success 4993590.desched1
 ---------------------------------------------------
2024-06-30 23:02:58: st_archive starting 4993591.desched1
 ---------------------------------------------------
2024-06-30 23:03:42: st_archive success 4993591.desched1
 ---------------------------------------------------
2024-06-30 23:03:45: case.submit starting 4996825.desched1
 ---------------------------------------------------
2024-06-30 23:03:45: case.submit success 4996825.desched1
 ---------------------------------------------------
2024-06-30 23:04:04: case.run starting 4996824.desched1
 ---------------------------------------------------
2024-06-30 23:04:07: model execution starting 4996824.desched1
 ---------------------------------------------------
2024-07-01 04:14:51: model execution success 4996824.desched1
 ---------------------------------------------------
2024-07-01 04:14:51: case.run success 4996824.desched1
 ---------------------------------------------------
2024-07-01 04:15:10: st_archive starting 4996825.desched1
 ---------------------------------------------------
2024-07-01 04:16:02: st_archive success 4996825.desched1
 ---------------------------------------------------
2024-07-01 04:16:04: case.submit starting 5000469.desched1
 ---------------------------------------------------
2024-07-01 04:16:04: case.submit success 5000469.desched1
 ---------------------------------------------------
2024-07-01 04:16:23: case.run starting 5000468.desched1
 ---------------------------------------------------
2024-07-01 04:16:30: model execution starting 5000468.desched1
 ---------------------------------------------------
2024-07-01 09:26:58: model execution success 5000468.desched1
 ---------------------------------------------------
2024-07-01 09:26:58: case.run success 5000468.desched1
 ---------------------------------------------------
2024-07-01 09:27:16: st_archive starting 5000469.desched1
 ---------------------------------------------------
2024-07-01 09:27:57: st_archive success 5000469.desched1
 ---------------------------------------------------
2024-07-01 09:27:57: case.submit starting 5003243.desched1
 ---------------------------------------------------
2024-07-01 09:27:57: case.submit success 5003243.desched1
 ---------------------------------------------------
2024-07-01 09:28:14: case.run starting 5003242.desched1
 ---------------------------------------------------
2024-07-01 09:28:18: model execution starting 5003242.desched1
 ---------------------------------------------------
2024-07-01 14:38:43: model execution success 5003242.desched1
 ---------------------------------------------------
2024-07-01 14:38:43: case.run success 5003242.desched1
 ---------------------------------------------------
2024-07-01 19:23:50: st_archive starting 5003243.desched1
 ---------------------------------------------------
2024-07-01 19:25:39: st_archive success 5003243.desched1
 ---------------------------------------------------
2024-07-01 19:25:39: case.submit starting 5011060.desched1
 ---------------------------------------------------
2024-07-01 19:25:39: case.submit success 5011060.desched1
 ---------------------------------------------------
2024-07-02 19:34:05: case.run starting 5011059.desched1
 ---------------------------------------------------
2024-07-02 19:34:15: model execution starting 5011059.desched1
 ---------------------------------------------------
2024-07-03 00:44:59: model execution success 5011059.desched1
 ---------------------------------------------------
2024-07-03 00:44:59: case.run success 5011059.desched1
 ---------------------------------------------------
2024-07-03 02:07:53: st_archive starting 5011060.desched1
 ---------------------------------------------------
2024-07-03 02:08:31: st_archive success 5011060.desched1
 ---------------------------------------------------
2024-07-03 02:08:31: case.submit starting 5028206.desched1
 ---------------------------------------------------
2024-07-03 02:08:31: case.submit success 5028206.desched1
 ---------------------------------------------------
2024-07-03 02:09:13: case.run starting 5028205.desched1
 ---------------------------------------------------
2024-07-03 02:09:18: model execution starting 5028205.desched1
 ---------------------------------------------------
2024-07-03 07:19:25: model execution success 5028205.desched1
 ---------------------------------------------------
2024-07-03 07:19:25: case.run success 5028205.desched1
 ---------------------------------------------------
2024-07-03 07:22:58: st_archive starting 5028206.desched1
 ---------------------------------------------------
2024-07-03 07:23:35: st_archive success 5028206.desched1
 ---------------------------------------------------
2024-07-03 07:23:36: case.submit starting 5033865.desched1
 ---------------------------------------------------
2024-07-03 07:23:36: case.submit success 5033865.desched1
 ---------------------------------------------------
2024-07-03 07:25:59: case.run starting 5033864.desched1
 ---------------------------------------------------
2024-07-03 07:26:06: model execution starting 5033864.desched1
 ---------------------------------------------------
2024-07-03 12:36:01: model execution success 5033864.desched1
 ---------------------------------------------------
2024-07-03 12:36:01: case.run success 5033864.desched1
 ---------------------------------------------------
2024-07-03 12:36:18: st_archive starting 5033865.desched1
 ---------------------------------------------------
2024-07-03 12:36:57: st_archive success 5033865.desched1
 ---------------------------------------------------
2024-07-03 12:36:57: case.submit starting 5041285.desched1
 ---------------------------------------------------
2024-07-03 12:36:57: case.submit success 5041285.desched1
 ---------------------------------------------------
2024-07-03 12:37:14: case.run starting 5041284.desched1
 ---------------------------------------------------
2024-07-03 12:37:19: model execution starting 5041284.desched1
 ---------------------------------------------------
2024-07-03 13:51:20: xmlchange success <command> ./xmlchange RESUBMIT=0  </command>
 ---------------------------------------------------
2024-07-03 17:49:25: model execution success 5041284.desched1
 ---------------------------------------------------
2024-07-03 17:49:26: case.run success 5041284.desched1
 ---------------------------------------------------
2024-07-03 17:49:49: st_archive starting 5041285.desched1
 ---------------------------------------------------
2024-07-03 17:50:33: st_archive success 5041285.desched1
 ---------------------------------------------------
2024-07-05 13:35:14: case.setup starting 
 ---------------------------------------------------
2024-07-05 13:35:16: case.setup success 
 ---------------------------------------------------
2024-07-05 13:35:31: build.clean starting 
 ---------------------------------------------------
2024-07-05 13:35:43: build.clean success 
 ---------------------------------------------------
2024-07-05 13:35:44: case.build starting 
 ---------------------------------------------------
2024-07-05 13:46:46: case.build success 
 ---------------------------------------------------
2024-07-05 13:49:41: case.submit starting 5091828.desched1
 ---------------------------------------------------
2024-07-05 13:49:41: case.submit success 5091828.desched1
 ---------------------------------------------------
2024-07-05 13:49:41: xmlchange success <command> ./xmlchange RESUBMIT=15  </command>
 ---------------------------------------------------
2024-07-05 13:49:59: case.run starting 5091827.desched1
 ---------------------------------------------------
2024-07-05 13:50:05: model execution starting 5091827.desched1
 ---------------------------------------------------
2024-07-05 13:50:39: model execution success 5091827.desched1
 ---------------------------------------------------
2024-07-05 13:50:39: case.run error 
ERROR: Model did not complete - see /glade/derecho/scratch/hannay/b.e23_alpha17f.BLTHIST.ne30_t232.098b/run/med.log.5091827.desched1.240705-134959 
 
 ---------------------------------------------------
2024-07-05 15:20:38: case.submit starting 5092284.desched1
 ---------------------------------------------------
2024-07-05 15:20:38: case.submit success 5092284.desched1
 ---------------------------------------------------
2024-07-05 15:20:59: case.run starting 5092283.desched1
 ---------------------------------------------------
2024-07-05 15:22:19: model execution starting 5092283.desched1
 ---------------------------------------------------
2024-07-05 15:23:30: model execution success 5092283.desched1
 ---------------------------------------------------
2024-07-05 15:23:30: case.run error 
ERROR: Model did not complete - see /glade/derecho/scratch/hannay/b.e23_alpha17f.BLTHIST.ne30_t232.098b/run/med.log.5092283.desched1.240705-152059 
 
 ---------------------------------------------------
2024-07-07 19:04:42: case.build starting 
 ---------------------------------------------------
2024-07-07 19:05:53: case.build success 
 ---------------------------------------------------
2024-07-07 19:06:50: case.submit starting 5119438.desched1
 ---------------------------------------------------
2024-07-07 19:06:50: case.submit success 5119438.desched1
 ---------------------------------------------------
2024-07-07 19:07:08: case.run starting 5119437.desched1
 ---------------------------------------------------
2024-07-07 19:07:15: model execution starting 5119437.desched1
 ---------------------------------------------------
2024-07-07 19:07:56: model execution success 5119437.desched1
 ---------------------------------------------------
2024-07-07 19:07:56: case.run error 
ERROR: Model did not complete - see /glade/derecho/scratch/hannay/b.e23_alpha17f.BLTHIST.ne30_t232.098b/run/med.log.5119437.desched1.240707-190708 
 
 ---------------------------------------------------
2024-07-07 19:09:40: case.setup starting 
 ---------------------------------------------------