2023-09-06 13:34:49: case.setup starting 
 ---------------------------------------------------
2023-09-06 13:34:50: case.setup success 
 ---------------------------------------------------
2023-09-06 13:34:55: xmlchange success <command> ./xmlchange --append CAM_CONFIG_OPTS=-cosp  </command>
 ---------------------------------------------------
2023-09-06 13:55:39: case.build starting 
 ---------------------------------------------------
2023-09-06 13:55:43: case.build starting 
 ---------------------------------------------------
2023-09-06 13:55:51: case.build error 
[Errno 2] No such file or directory: 'a.out'
 ---------------------------------------------------
2023-09-06 13:55:51: case.build error 
ERROR: Command: 'cmake -DCONVERT_TO_MAKE=ON -DCOMP_NAME=csm_share_cpl7 -DCIME_MODEL=cesm -DSRC_ROOT=/glade/work/hannay/cesm_tags/cesm2_3_alpha16b_taus  -Dcompile_threaded=FALSE  -DUSE_FMS=TRUE  -DINSTALL_SHAREDPATH=/glade/derecho/scratch/hannay/b.e23_alpha16b.BLT1850.ne30_t232.044/bld/DO_NOT_USE -DCASEROOT="/glade/p/cesmdata/cseg/runs/cesm2_0/b.e23_alpha16b.BLT1850.ne30_t232.044" -DCASETOOLS="/glade/p/cesmdata/cseg/runs/cesm2_0/b.e23_alpha16b.BLT1850.ne30_t232.044/Tools" -DCIMEROOT="/glade/work/hannay/cesm_tags/cesm2_3_alpha16b_taus/cime" -DSRCROOT="/glade/work/hannay/cesm_tags/cesm2_3_alpha16b_taus" -DCOMP_INTERFACE="nuopc" -DCOMPILER="intel" -DDEBUG="FALSE" -DEXEROOT="/glade/derecho/scratch/hannay/b.e23_alpha16b.BLT1850.ne30_t232.044/bld" -DRUNDIR="/glade/derecho/scratch/hannay/b.e23_alpha16b.BLT1850.ne30_t232.044/run" -DINCROOT="/glade/derecho/scratch/hannay/b.e23_alpha16b.BLT1850.ne30_t232.044/bld/lib/include" -DLIBROOT="/glade/derecho/scratch/hannay/b.e23_alpha16b.BLT1850.ne30_t232.044/bld/lib" -DMACH="derecho" -DMPILIB="mpich" -DNINST_VALUE="c1a1l1i1o1r1g1w1" -DOS="CNL" -DPIO_VERSION="2" -DSHAREDLIBROOT="/glade/derecho/scratch/hannay/b.e23_alpha16b.BLT1850.ne30_t232.044/bld" -DSMP_PRESENT="FALSE" -DUSE_ESMF_LIB="TRUE" -DUSE_MOAB="FALSE" -DCAM_CONFIG_OPTS="-phys cam_dev -chem ghg_mam4 -nlev 58 -model_top lt -cosp" -DCOMP_ATM="cam" -DCOMP_ICE="cice" -DCOMP_GLC="cism" -DCOMP_LND="clm" -DCOMP_OCN="mom" -DCOMP_ROF="mosart" -DCOMP_WAV="ww" -DUSE_TRILINOS="FALSE" -DUSE_ALBANY="FALSE" -DUSE_PETSC="FALSE"  -DCMAKE_C_COMPILER_WORKS=1 -DCMAKE_CXX_COMPILER_WORKS=1 -DCMAKE_Fortran_COMPILER_WORKS=1 .' failed with error 'CMake Error: The source directory "/glade/p/cesmdata/cseg/runs/cesm2_0/b.e23_alpha16b.BLT1850.ne30_t232.044/cmaketmp" does not appear to contain CMakeLists.txt.
Specify --help for usage, or press the help button on the CMake GUI.' from dir '/glade/p/cesmdata/cseg/runs/cesm2_0/b.e23_alpha16b.BLT1850.ne30_t232.044/cmaketmp'
 ---------------------------------------------------
2023-09-06 13:55:52: xmlchange success <command> ./xmlchange PROJECT=CESM0023,RESUBMIT=10,STOP_N=2,STOP_OPTION=nyears  </command>
 ---------------------------------------------------
2023-09-06 13:55:53: xmlchange success <command> ./xmlchange REST_OPTION=nyears,REST_N=1  </command>
 ---------------------------------------------------
2023-09-06 13:55:53: xmlchange success <command> ./xmlchange JOB_WALLCLOCK_TIME=12:00:00  </command>
 ---------------------------------------------------
2023-09-06 13:57:49: case.build starting 
 ---------------------------------------------------
2023-09-06 14:10:17: case.build success 
 ---------------------------------------------------
2023-09-06 14:49:45: xmlchange success <command> ./xmlchange PROJECT=CESM0023,RESUBMIT=10,STOP_N=2,STOP_OPTION=nyears  </command>
 ---------------------------------------------------
2023-09-06 14:49:46: xmlchange success <command> ./xmlchange REST_OPTION=nyears,REST_N=1  </command>
 ---------------------------------------------------
2023-09-06 14:49:47: xmlchange success <command> ./xmlchange JOB_WALLCLOCK_TIME=12:00:00  </command>
 ---------------------------------------------------
2023-09-07 09:43:45: case.build starting 
 ---------------------------------------------------
2023-09-07 09:44:27: case.build success 
 ---------------------------------------------------
2023-09-07 10:18:56: case.build starting 
 ---------------------------------------------------
2023-09-07 10:19:30: case.build success 
 ---------------------------------------------------
2023-09-07 10:22:04: xmlchange success <command> ./xmlchange PROJECT=CESM0023,RESUBMIT=10,STOP_N=2,STOP_OPTION=nyears  </command>
 ---------------------------------------------------
2023-09-07 10:22:04: xmlchange success <command> ./xmlchange REST_OPTION=nyears,REST_N=1  </command>
 ---------------------------------------------------
2023-09-07 10:22:04: xmlchange success <command> ./xmlchange JOB_WALLCLOCK_TIME=12:00:00  </command>
 ---------------------------------------------------
2023-09-07 10:22:12: case.submit starting 1331295.desched1
 ---------------------------------------------------
2023-09-07 10:22:12: case.submit success 1331295.desched1
 ---------------------------------------------------
2023-09-07 10:22:25: case.run starting 1331294.desched1
 ---------------------------------------------------
2023-09-07 10:22:29: model execution starting 1331294.desched1
 ---------------------------------------------------
2023-09-07 11:48:12: case.build starting 
 ---------------------------------------------------
2023-09-07 12:01:01: case.build success 
 ---------------------------------------------------
2023-09-07 12:01:24: xmlchange success <command> ./xmlchange PROJECT=CESM0023,RESUBMIT=10,STOP_N=2,STOP_OPTION=nyears  </command>
 ---------------------------------------------------
2023-09-07 12:01:24: xmlchange success <command> ./xmlchange REST_OPTION=nyears,REST_N=1  </command>
 ---------------------------------------------------
2023-09-07 12:01:24: xmlchange success <command> ./xmlchange JOB_WALLCLOCK_TIME=12:00:00  </command>
 ---------------------------------------------------
2023-09-07 12:01:32: case.submit starting 1331435.desched1
 ---------------------------------------------------
2023-09-07 12:01:32: case.submit success 1331435.desched1
 ---------------------------------------------------
2023-09-07 12:01:44: case.run starting 1331434.desched1
 ---------------------------------------------------
2023-09-07 12:01:49: model execution starting 1331434.desched1
 ---------------------------------------------------
