2024-07-31 13:44:00: xmlchange success <command> ./xmlchange --append CAM_CONFIG_OPTS=-rad rrtmgp  </command>
 ---------------------------------------------------
2024-07-31 13:44:01: xmlchange success <command> ./xmlchange RUN_STARTDATE=1995-01-01  </command>
 ---------------------------------------------------
2024-07-31 13:44:01: xmlchange success <command> ./xmlchange STOP_N=2  </command>
 ---------------------------------------------------
2024-07-31 13:44:02: xmlchange success <command> ./xmlchange STOP_OPTION=nyears  </command>
 ---------------------------------------------------
2024-07-31 13:44:02: xmlchange success <command> ./xmlchange RESUBMIT=5  </command>
 ---------------------------------------------------
2024-07-31 13:44:02: xmlchange success <command> ./xmlchange TIMER_LEVEL=10  </command>
 ---------------------------------------------------
2024-07-31 13:44:03: xmlchange success <command> ./xmlchange RUN_STARTDATE=1995-01-01  </command>
 ---------------------------------------------------
2024-07-31 13:44:03: case.setup starting 
 ---------------------------------------------------
2024-07-31 13:44:05: case.setup success 
 ---------------------------------------------------
2024-07-31 13:44:43: case.setup starting 
 ---------------------------------------------------
2024-07-31 13:44:45: case.setup success 
 ---------------------------------------------------
2024-07-31 13:44:45: case.build starting 
 ---------------------------------------------------
2024-07-31 13:56:36: case.build success 
 ---------------------------------------------------
2024-07-31 13:56:45: case.submit starting 5441693.desched1
 ---------------------------------------------------
2024-07-31 13:56:45: case.submit success 5441693.desched1
 ---------------------------------------------------
2024-07-31 14:01:46: case.run starting 5441692.desched1
 ---------------------------------------------------
2024-07-31 14:01:57: model execution starting 5441692.desched1
 ---------------------------------------------------
2024-07-31 14:07:02: model execution success 5441692.desched1
 ---------------------------------------------------
2024-07-31 14:07:02: case.run error 
ERROR: Model did not complete - see /glade/derecho/scratch/tilmes/f.e23_beta02.FLTHIST_ne30.001/run/med.log.5441692.desched1.240731-140146 
 
 ---------------------------------------------------
2024-07-31 14:17:35: case.submit starting 5441807.desched1
 ---------------------------------------------------
2024-07-31 14:17:35: case.submit success 5441807.desched1
 ---------------------------------------------------
2024-07-31 14:43:43: case.run starting 5441806.desched1
 ---------------------------------------------------
2024-07-31 14:43:50: model execution starting 5441806.desched1
 ---------------------------------------------------
2024-07-31 16:35:55: case.submit starting 5442598.desched1
 ---------------------------------------------------
2024-07-31 16:35:55: case.submit success 5442598.desched1
 ---------------------------------------------------
2024-07-31 16:37:35: case.run starting 5442597.desched1
 ---------------------------------------------------
2024-07-31 16:37:42: model execution starting 5442597.desched1
 ---------------------------------------------------
2024-07-31 21:16:34: model execution success 5442597.desched1
 ---------------------------------------------------
2024-07-31 21:16:34: case.run success 5442597.desched1
 ---------------------------------------------------
2024-07-31 22:33:29: st_archive starting 5442598.desched1
 ---------------------------------------------------
2024-07-31 22:33:50: st_archive success 5442598.desched1
 ---------------------------------------------------
2024-07-31 22:33:51: case.submit starting 5447980.desched1
 ---------------------------------------------------
2024-07-31 22:33:51: case.submit success 5447980.desched1
 ---------------------------------------------------
2024-07-31 22:34:12: case.run starting 5447979.desched1
 ---------------------------------------------------
2024-07-31 22:34:19: model execution starting 5447979.desched1
 ---------------------------------------------------
2024-08-01 02:31:55: model execution success 5447979.desched1
 ---------------------------------------------------
2024-08-01 02:31:55: case.run success 5447979.desched1
 ---------------------------------------------------
2024-08-01 02:32:09: st_archive starting 5447980.desched1
 ---------------------------------------------------
2024-08-01 02:32:30: st_archive success 5447980.desched1
 ---------------------------------------------------
2024-08-01 02:32:30: case.submit starting 5455194.desched1
 ---------------------------------------------------
2024-08-01 02:32:30: case.submit success 5455194.desched1
 ---------------------------------------------------
2024-08-01 02:32:46: case.run starting 5455193.desched1
 ---------------------------------------------------
2024-08-01 02:32:49: model execution starting 5455193.desched1
 ---------------------------------------------------
2024-08-01 06:29:14: model execution success 5455193.desched1
 ---------------------------------------------------
2024-08-01 06:29:14: case.run success 5455193.desched1
 ---------------------------------------------------
2024-08-01 06:29:30: st_archive starting 5455194.desched1
 ---------------------------------------------------
2024-08-01 06:29:50: st_archive success 5455194.desched1
 ---------------------------------------------------
2024-08-01 06:29:51: case.submit starting 5458442.desched1
 ---------------------------------------------------
2024-08-01 06:29:51: case.submit success 5458442.desched1
 ---------------------------------------------------
2024-08-01 06:30:05: case.run starting 5458441.desched1
 ---------------------------------------------------
2024-08-01 06:30:08: model execution starting 5458441.desched1
 ---------------------------------------------------
2024-08-01 10:28:41: model execution success 5458441.desched1
 ---------------------------------------------------
2024-08-01 10:28:41: case.run success 5458441.desched1
 ---------------------------------------------------
2024-08-01 10:28:57: st_archive starting 5458442.desched1
 ---------------------------------------------------
2024-08-01 10:29:18: st_archive success 5458442.desched1
 ---------------------------------------------------
2024-08-01 10:29:19: case.submit starting 5460916.desched1
 ---------------------------------------------------
2024-08-01 10:29:19: case.submit success 5460916.desched1
 ---------------------------------------------------
2024-08-01 10:29:32: case.run starting 5460915.desched1
 ---------------------------------------------------
2024-08-01 10:29:35: model execution starting 5460915.desched1
 ---------------------------------------------------
2024-08-01 14:27:21: model execution success 5460915.desched1
 ---------------------------------------------------
2024-08-01 14:27:21: case.run success 5460915.desched1
 ---------------------------------------------------
2024-08-01 14:38:34: st_archive starting 
 ---------------------------------------------------
2024-08-01 15:03:50: st_archive success 
 ---------------------------------------------------
2024-08-01 16:13:46: st_archive starting 5460916.desched1
 ---------------------------------------------------
2024-08-01 16:14:04: st_archive success 5460916.desched1
 ---------------------------------------------------
2024-08-01 16:14:07: case.submit starting 5464025.desched1
 ---------------------------------------------------
2024-08-01 16:14:07: case.submit success 5464025.desched1
 ---------------------------------------------------
2024-08-01 16:25:11: case.run starting 5464022.desched1
 ---------------------------------------------------
2024-08-01 16:25:16: model execution starting 5464022.desched1
 ---------------------------------------------------
2024-08-01 20:45:53: model execution success 5464022.desched1
 ---------------------------------------------------
2024-08-01 20:45:53: case.run success 5464022.desched1
 ---------------------------------------------------
2024-08-01 20:46:08: st_archive starting 5464025.desched1
 ---------------------------------------------------
2024-08-01 20:46:45: st_archive success 5464025.desched1
 ---------------------------------------------------
