2023-08-29 09:42:45: case.setup starting 
 ---------------------------------------------------
2023-08-29 09:42:47: case.setup success 
 ---------------------------------------------------
2023-08-29 09:42:53: xmlchange success <command> ./xmlchange --append CAM_CONFIG_OPTS=-cosp  </command>
 ---------------------------------------------------
2023-08-29 09:44:57: case.build starting 
 ---------------------------------------------------
2023-08-29 09:48:36: case.build success 
 ---------------------------------------------------
2023-08-29 09:48:48: case.setup starting 
 ---------------------------------------------------
2023-08-29 09:48:49: case.setup success 
 ---------------------------------------------------
2023-08-29 09:48:54: xmlchange success <command> ./xmlchange --append CAM_CONFIG_OPTS=-cosp  </command>
 ---------------------------------------------------
2023-08-29 09:49:30: case.build starting 
 ---------------------------------------------------
2023-08-29 09:49:30: case.build error 
ERROR: 
ERROR env_build HAS CHANGED
  A manual clean of your obj directories is required
  You should execute the following:
    ./case.build --clean-all

 ---------------------------------------------------
2023-08-29 09:51:12: build.clean starting 
 ---------------------------------------------------
2023-08-29 09:51:15: build.clean success 
 ---------------------------------------------------
2023-08-29 09:51:24: case.build starting 
 ---------------------------------------------------
2023-08-29 09:54:15: case.build starting 
 ---------------------------------------------------
2023-08-29 09:55:41: xmlchange success <command> ./xmlchange RUN_REFCASE=b.e23_alpha16b.BLT1850.ne30_t232.040  </command>
 ---------------------------------------------------
2023-08-29 09:55:41: xmlchange success <command> ./xmlchange RUN_REFDATE=0021-01-01  </command>
 ---------------------------------------------------
2023-08-29 09:55:42: xmlchange success <command> ./xmlchange RUN_STARTDATE=0021-01-01  </command>
 ---------------------------------------------------
2023-08-29 09:56:09: case.build error 
ERROR: BUILD FAIL: clm.buildlib failed, cat /glade/derecho/scratch/hannay/b.e23_alpha16b.BLT1850.ne30_t232.040/bld/lnd.bldlog.230829-095124
 ---------------------------------------------------
2023-08-29 09:56:42: xmlchange success <command> ./xmlchange RUN_TYPE=hybrid  </command>
 ---------------------------------------------------
2023-08-29 09:57:23: case.build starting 
 ---------------------------------------------------
2023-08-29 09:58:14: case.build error 
ERROR: BUILD FAIL: clm.buildlib failed, cat /glade/derecho/scratch/hannay/b.e23_alpha16b.BLT1850.ne30_t232.040/bld/lnd.bldlog.230829-095723
 ---------------------------------------------------
2023-08-29 10:03:38: case.build success 
 ---------------------------------------------------
2023-08-29 11:16:33: case.build starting 
 ---------------------------------------------------
2023-08-29 11:17:10: case.build success 
 ---------------------------------------------------
2023-08-29 11:24:40: xmlchange success <command> ./xmlchange PROJECT=CESM0023,RESUBMIT=0,STOP_N=1,STOP_OPTION=nmonths  </command>
 ---------------------------------------------------
2023-08-29 11:24:41: xmlchange success <command> ./xmlchange REST_OPTION=nmonths,REST_N=1  </command>
 ---------------------------------------------------
2023-08-29 11:24:41: xmlchange success <command> ./xmlchange JOB_WALLCLOCK_TIME=12:00:00  </command>
 ---------------------------------------------------
2023-08-29 11:25:09: xmlchange success <command> ./xmlchange PROJECT=CESM0023,RESUBMIT=10,STOP_N=2,STOP_OPTION=nyears  </command>
 ---------------------------------------------------
2023-08-29 11:25:10: xmlchange success <command> ./xmlchange REST_OPTION=nyears,REST_N=1  </command>
 ---------------------------------------------------
2023-08-29 11:25:11: xmlchange success <command> ./xmlchange JOB_WALLCLOCK_TIME=12:00:00  </command>
 ---------------------------------------------------
2023-08-29 11:25:35: case.build starting 
 ---------------------------------------------------
2023-08-29 11:26:13: case.build success 
 ---------------------------------------------------
2023-08-29 11:27:21: xmlchange success <command> ./xmlchange PROJECT=CESM0023,RESUBMIT=10,STOP_N=2,STOP_OPTION=nyears  </command>
 ---------------------------------------------------
2023-08-29 11:27:21: xmlchange success <command> ./xmlchange REST_OPTION=nyears,REST_N=1  </command>
 ---------------------------------------------------
2023-08-29 11:27:22: xmlchange success <command> ./xmlchange JOB_WALLCLOCK_TIME=12:00:00  </command>
 ---------------------------------------------------
2023-08-29 11:27:28: case.submit starting 1308608.desched1
 ---------------------------------------------------
2023-08-29 11:27:28: case.submit success 1308608.desched1
 ---------------------------------------------------
2023-08-29 11:27:41: case.run starting 1308607.desched1
 ---------------------------------------------------
2023-08-29 11:27:46: model execution starting 1308607.desched1
 ---------------------------------------------------
2023-08-29 13:25:07: xmlchange success <command> ./xmlchange RUN_REFCASE=b.e23_alpha16b.BLT1850.ne30_t232.040  </command>
 ---------------------------------------------------
2023-08-29 13:25:07: xmlchange success <command> ./xmlchange RUN_REFDATE=0021-01-01  </command>
 ---------------------------------------------------
2023-08-29 13:25:08: xmlchange success <command> ./xmlchange RUN_STARTDATE=0021-01-01  </command>
 ---------------------------------------------------
2023-08-29 13:25:17: xmlchange success <command> ./xmlchange RUN_TYPE=branch  </command>
 ---------------------------------------------------
2023-08-29 13:25:24: xmlchange success <command> ./xmlchange PROJECT=CESM0023,RESUBMIT=10,STOP_N=2,STOP_OPTION=nyears  </command>
 ---------------------------------------------------
2023-08-29 13:25:25: xmlchange success <command> ./xmlchange REST_OPTION=nyears,REST_N=1  </command>
 ---------------------------------------------------
2023-08-29 13:25:25: xmlchange success <command> ./xmlchange JOB_WALLCLOCK_TIME=12:00:00  </command>
 ---------------------------------------------------
2023-08-29 13:25:31: case.submit starting 1310873.desched1
 ---------------------------------------------------
2023-08-29 13:25:31: case.submit success 1310873.desched1
 ---------------------------------------------------
2023-08-29 13:25:44: case.run starting 1310872.desched1
 ---------------------------------------------------
2023-08-29 13:25:48: model execution starting 1310872.desched1
 ---------------------------------------------------
