2024-08-13 14:53:30: xmlchange success <command> ./xmlchange --append CAM_CONFIG_OPTS=-rad rrtmgp  </command>
 ---------------------------------------------------
2024-08-13 14:53:31: case.setup starting 
 ---------------------------------------------------
2024-08-13 14:53:35: case.setup success 
 ---------------------------------------------------
2024-08-13 14:53:48: xmlchange success <command> ./xmlchange RUN_REFCASE=b.e23_alpha17f.BLT1850.ne30_t232.0104  </command>
 ---------------------------------------------------
2024-08-13 14:53:48: xmlchange success <command> ./xmlchange RUN_REFDATE=0051-01-01  </command>
 ---------------------------------------------------
2024-08-13 14:53:49: xmlchange success <command> ./xmlchange RUN_TYPE=hybrid  </command>
 ---------------------------------------------------
2024-08-13 14:53:49: xmlchange success <command> ./xmlchange GET_REFCASE=true  </command>
 ---------------------------------------------------
2024-08-13 14:53:53: xmlchange success <command> ./xmlchange RUN_REFDIR=cesm2_init  </command>
 ---------------------------------------------------
2024-08-13 14:53:59: xmlchange success <command> ./xmlchange MOM6_VERTICAL_GRID=hycom1  </command>
 ---------------------------------------------------
2024-08-13 14:54:59: case.build starting 
 ---------------------------------------------------
2024-08-13 14:55:11: case.build error 
ERROR: Could not download refcase from any server
 ---------------------------------------------------
2024-08-13 14:57:20: case.build starting 
 ---------------------------------------------------
2024-08-13 15:11:52: case.build starting 
 ---------------------------------------------------
2024-08-13 15:12:48: case.build error 
ERROR: BUILD FAIL: buildexe failed, cat /glade/derecho/scratch/hannay/b.e30_beta02.BLTHIST.ne30_t232.104/bld/cesm.bldlog.240813-151152
 ---------------------------------------------------
2024-08-13 15:14:15: case.build success 
 ---------------------------------------------------
2024-08-13 15:21:13: case.build starting 
 ---------------------------------------------------
2024-08-13 15:21:59: case.build success 
 ---------------------------------------------------
2024-08-13 15:22:46: xmlchange success <command> ./xmlchange PROJECT=CESM0023,RESUBMIT=10,STOP_N=2,STOP_OPTION=nyears  </command>
 ---------------------------------------------------
2024-08-13 15:22:46: xmlchange success <command> ./xmlchange CHARGE_ACCOUNT=CESM0023  </command>
 ---------------------------------------------------
2024-08-13 15:22:47: xmlchange success <command> ./xmlchange REST_OPTION=nyears,REST_N=1  </command>
 ---------------------------------------------------
2024-08-13 15:22:52: xmlchange success <command> ./xmlchange JOB_WALLCLOCK_TIME=12:00:00 --subgroup case.run  </command>
 ---------------------------------------------------
2024-08-13 15:28:15: case.build starting 
 ---------------------------------------------------
2024-08-13 15:29:15: case.build success 
 ---------------------------------------------------
2024-08-13 15:29:16: xmlchange success <command> ./xmlchange PROJECT=CESM0023,RESUBMIT=10,STOP_N=2,STOP_OPTION=nyears  </command>
 ---------------------------------------------------
2024-08-13 15:29:17: xmlchange success <command> ./xmlchange CHARGE_ACCOUNT=CESM0023  </command>
 ---------------------------------------------------
2024-08-13 15:29:17: xmlchange success <command> ./xmlchange REST_OPTION=nyears,REST_N=1  </command>
 ---------------------------------------------------
2024-08-13 15:29:18: xmlchange success <command> ./xmlchange JOB_WALLCLOCK_TIME=12:00:00 --subgroup case.run  </command>
 ---------------------------------------------------
2024-08-13 15:29:28: case.submit starting 5640545.desched1
 ---------------------------------------------------
2024-08-13 15:29:28: case.submit success 5640545.desched1
 ---------------------------------------------------
2024-08-13 15:29:49: case.run starting 5640544.desched1
 ---------------------------------------------------
2024-08-13 15:29:59: model execution starting 5640544.desched1
 ---------------------------------------------------
2024-08-13 15:30:52: model execution success 5640544.desched1
 ---------------------------------------------------
2024-08-13 15:30:52: case.run error 
ERROR: Model did not complete - see /glade/derecho/scratch/hannay/b.e30_beta02.BLTHIST.ne30_t232.104/run/med.log.5640544.desched1.240813-152949 
 
 ---------------------------------------------------
2024-08-13 15:37:37: xmlchange success <command> ./xmlchange MOM6_VERTICAL_GRID=hycom1  </command>
 ---------------------------------------------------
2024-08-13 15:37:58: xmlchange success <command> ./xmlchange PROJECT=CESM0023,RESUBMIT=10,STOP_N=2,STOP_OPTION=nyears  </command>
 ---------------------------------------------------
2024-08-13 15:37:59: xmlchange success <command> ./xmlchange CHARGE_ACCOUNT=CESM0023  </command>
 ---------------------------------------------------
2024-08-13 15:37:59: xmlchange success <command> ./xmlchange REST_OPTION=nyears,REST_N=1  </command>
 ---------------------------------------------------
2024-08-13 15:38:00: xmlchange success <command> ./xmlchange JOB_WALLCLOCK_TIME=12:00:00 --subgroup case.run  </command>
 ---------------------------------------------------
2024-08-13 15:38:09: case.submit starting 5640580.desched1
 ---------------------------------------------------
2024-08-13 15:38:09: case.submit success 5640580.desched1
 ---------------------------------------------------
2024-08-13 15:38:35: case.run starting 5640579.desched1
 ---------------------------------------------------
2024-08-13 15:38:45: model execution starting 5640579.desched1
 ---------------------------------------------------
2024-08-13 15:39:35: model execution success 5640579.desched1
 ---------------------------------------------------
2024-08-13 15:39:35: case.run error 
ERROR: Model did not complete - see /glade/derecho/scratch/hannay/b.e30_beta02.BLTHIST.ne30_t232.104/run/med.log.5640579.desched1.240813-153835 
 
 ---------------------------------------------------
2024-08-13 15:40:21: xmlchange success <command> ./xmlchange RUN_REFCASE=b.e30_beta02.BLT1850.ne30_t232.0104  </command>
 ---------------------------------------------------
2024-08-13 15:40:22: xmlchange success <command> ./xmlchange RUN_REFDATE=0051-01-01  </command>
 ---------------------------------------------------
2024-08-13 15:40:22: xmlchange success <command> ./xmlchange RUN_TYPE=hybrid  </command>
 ---------------------------------------------------
2024-08-13 15:40:23: xmlchange success <command> ./xmlchange GET_REFCASE=true  </command>
 ---------------------------------------------------
2024-08-13 15:40:23: xmlchange success <command> ./xmlchange RUN_REFDIR=cesm2_init  </command>
 ---------------------------------------------------
2024-08-13 15:42:26: case.build starting 
 ---------------------------------------------------
2024-08-13 15:42:27: case.build error 
[Errno 17] File exists: '/glade/campaign/cesm/cesmdata/inputdata/cesm2_init/b.e30_beta02.BLT1850.ne30_t232.0104/0051-01-01/b.e30_beta02.BLT1850.ne30_t232.104.clm2.rh0.0051-01-01-00000.nc' -> '/glade/derecho/scratch/hannay/b.e30_beta02.BLTHIST.ne30_t232.104/run/b.e30_beta02.BLT1850.ne30_t232.104.clm2.rh0.0051-01-01-00000.nc'
 ---------------------------------------------------
2024-08-13 15:42:35: case.build starting 
 ---------------------------------------------------
2024-08-13 15:42:36: case.build error 
[Errno 17] File exists: '/glade/campaign/cesm/cesmdata/inputdata/cesm2_init/b.e30_beta02.BLT1850.ne30_t232.0104/0051-01-01/b.e30_beta02.BLT1850.ne30_t232.104.clm2.rh0.0051-01-01-00000.nc' -> '/glade/derecho/scratch/hannay/b.e30_beta02.BLTHIST.ne30_t232.104/run/b.e30_beta02.BLT1850.ne30_t232.104.clm2.rh0.0051-01-01-00000.nc'
 ---------------------------------------------------
2024-08-13 15:42:37: xmlchange success <command> ./xmlchange PROJECT=CESM0023,RESUBMIT=10,STOP_N=2,STOP_OPTION=nyears  </command>
 ---------------------------------------------------
2024-08-13 15:42:37: xmlchange success <command> ./xmlchange CHARGE_ACCOUNT=CESM0023  </command>
 ---------------------------------------------------
2024-08-13 15:42:38: xmlchange success <command> ./xmlchange REST_OPTION=nyears,REST_N=1  </command>
 ---------------------------------------------------
2024-08-13 15:42:38: xmlchange success <command> ./xmlchange JOB_WALLCLOCK_TIME=12:00:00 --subgroup case.run  </command>
 ---------------------------------------------------
2024-08-13 15:42:40: case.submit starting 
 ---------------------------------------------------
2024-08-13 15:42:40: case.submit error 
[Errno 17] File exists: '/glade/campaign/cesm/cesmdata/inputdata/cesm2_init/b.e30_beta02.BLT1850.ne30_t232.0104/0051-01-01/b.e30_beta02.BLT1850.ne30_t232.104.clm2.rh0.0051-01-01-00000.nc' -> '/glade/derecho/scratch/hannay/b.e30_beta02.BLTHIST.ne30_t232.104/run/b.e30_beta02.BLT1850.ne30_t232.104.clm2.rh0.0051-01-01-00000.nc'
 ---------------------------------------------------
2024-08-13 15:43:42: xmlchange success <command> ./xmlchange PROJECT=CESM0023,RESUBMIT=10,STOP_N=2,STOP_OPTION=nyears  </command>
 ---------------------------------------------------
2024-08-13 15:43:42: xmlchange success <command> ./xmlchange CHARGE_ACCOUNT=CESM0023  </command>
 ---------------------------------------------------
2024-08-13 15:43:43: xmlchange success <command> ./xmlchange REST_OPTION=nyears,REST_N=1  </command>
 ---------------------------------------------------
2024-08-13 15:43:43: xmlchange success <command> ./xmlchange JOB_WALLCLOCK_TIME=12:00:00 --subgroup case.run  </command>
 ---------------------------------------------------
2024-08-13 15:43:50: case.submit starting 
 ---------------------------------------------------
2024-08-13 15:43:50: case.submit error 
ERROR: Build complete is not True please rebuild the model by calling case.build
 ---------------------------------------------------
2024-08-13 15:44:13: case.build starting 
 ---------------------------------------------------
2024-08-13 15:46:07: case.build success 
 ---------------------------------------------------
2024-08-13 15:46:08: xmlchange success <command> ./xmlchange PROJECT=CESM0023,RESUBMIT=10,STOP_N=2,STOP_OPTION=nyears  </command>
 ---------------------------------------------------
2024-08-13 15:46:09: xmlchange success <command> ./xmlchange CHARGE_ACCOUNT=CESM0023  </command>
 ---------------------------------------------------
2024-08-13 15:46:09: xmlchange success <command> ./xmlchange REST_OPTION=nyears,REST_N=1  </command>
 ---------------------------------------------------
2024-08-13 15:46:10: xmlchange success <command> ./xmlchange JOB_WALLCLOCK_TIME=12:00:00 --subgroup case.run  </command>
 ---------------------------------------------------
2024-08-13 15:46:17: case.submit starting 5640664.desched1
 ---------------------------------------------------
2024-08-13 15:46:17: case.submit success 5640664.desched1
 ---------------------------------------------------
2024-08-13 15:46:59: case.run starting 5640663.desched1
 ---------------------------------------------------
2024-08-13 15:47:04: model execution starting 5640663.desched1
 ---------------------------------------------------
2024-08-13 15:48:02: model execution success 5640663.desched1
 ---------------------------------------------------
2024-08-13 15:48:02: case.run error 
ERROR: Model did not complete - see /glade/derecho/scratch/hannay/b.e30_beta02.BLTHIST.ne30_t232.104/run/med.log.5640663.desched1.240813-154659 
 
 ---------------------------------------------------
2024-08-14 13:13:29: case.build starting 
 ---------------------------------------------------
2024-08-14 13:15:18: case.build success 
 ---------------------------------------------------
2024-08-14 13:15:41: case.submit starting 5659086.desched1
 ---------------------------------------------------
2024-08-14 13:15:41: case.submit success 5659086.desched1
 ---------------------------------------------------
2024-08-14 13:16:33: case.run starting 5659085.desched1
 ---------------------------------------------------
2024-08-14 13:17:41: model execution starting 5659085.desched1
 ---------------------------------------------------
2024-08-14 13:18:18: model execution success 5659085.desched1
 ---------------------------------------------------
2024-08-14 13:18:18: case.run error 
ERROR: Model did not complete - see /glade/derecho/scratch/hannay/b.e30_beta02.BLTHIST.ne30_t232.104/run/med.log.5659085.desched1.240814-131633 
 
 ---------------------------------------------------
2024-08-14 13:23:36: case.build starting 
 ---------------------------------------------------
2024-08-14 13:24:28: case.build success 
 ---------------------------------------------------
2024-08-14 13:26:15: case.build starting 
 ---------------------------------------------------
2024-08-14 13:27:03: case.build success 
 ---------------------------------------------------
2024-08-14 13:27:59: case.submit starting 5659264.desched1
 ---------------------------------------------------
2024-08-14 13:27:59: case.submit success 5659264.desched1
 ---------------------------------------------------
2024-08-14 13:28:20: case.run starting 5659263.desched1
 ---------------------------------------------------
2024-08-14 13:28:32: model execution starting 5659263.desched1
 ---------------------------------------------------
2024-08-14 13:29:16: model execution success 5659263.desched1
 ---------------------------------------------------
2024-08-14 13:29:16: case.run error 
ERROR: Model did not complete - see /glade/derecho/scratch/hannay/b.e30_beta02.BLTHIST.ne30_t232.104/run/med.log.5659263.desched1.240814-132820 
 
 ---------------------------------------------------
2024-08-14 13:30:20: xmlchange success <command> ./xmlchange RUN_REFCASE=b.e30_beta02.BLT1850.ne30_t232.104  </command>
 ---------------------------------------------------
2024-08-14 13:30:20: xmlchange success <command> ./xmlchange RUN_REFDATE=0051-01-01  </command>
 ---------------------------------------------------
2024-08-14 13:30:21: xmlchange success <command> ./xmlchange RUN_TYPE=hybrid  </command>
 ---------------------------------------------------
2024-08-14 13:30:21: xmlchange success <command> ./xmlchange GET_REFCASE=true  </command>
 ---------------------------------------------------
2024-08-14 13:30:22: xmlchange success <command> ./xmlchange RUN_REFDIR=cesm2_init  </command>
 ---------------------------------------------------
2024-08-14 13:30:55: case.build starting 
 ---------------------------------------------------
2024-08-14 13:31:43: case.build success 
 ---------------------------------------------------
2024-08-14 13:31:59: case.submit starting 
 ---------------------------------------------------
2024-08-14 13:31:59: case.submit error 
ERROR: Could not find all inputdata on any server
 ---------------------------------------------------
2024-08-14 13:37:24: case.build starting 
 ---------------------------------------------------
2024-08-14 13:38:12: case.build success 
 ---------------------------------------------------
2024-08-14 13:38:20: case.submit starting 5659380.desched1
 ---------------------------------------------------
2024-08-14 13:38:20: case.submit success 5659380.desched1
 ---------------------------------------------------
2024-08-14 13:38:46: case.run starting 5659379.desched1
 ---------------------------------------------------
2024-08-14 13:38:58: model execution starting 5659379.desched1
 ---------------------------------------------------
2024-08-14 19:13:44: model execution success 5659379.desched1
 ---------------------------------------------------
2024-08-14 19:13:44: case.run success 5659379.desched1
 ---------------------------------------------------
2024-08-14 19:14:10: st_archive starting 5659380.desched1
 ---------------------------------------------------
2024-08-14 19:15:03: st_archive success 5659380.desched1
 ---------------------------------------------------
2024-08-14 19:15:08: case.submit starting 5664142.desched1
 ---------------------------------------------------
2024-08-14 19:15:08: case.submit success 5664142.desched1
 ---------------------------------------------------
2024-08-14 19:15:29: case.run starting 5664141.desched1
 ---------------------------------------------------
2024-08-14 19:15:40: model execution starting 5664141.desched1
 ---------------------------------------------------
2024-08-15 00:38:36: model execution success 5664141.desched1
 ---------------------------------------------------
2024-08-15 00:38:36: case.run success 5664141.desched1
 ---------------------------------------------------
2024-08-15 00:39:11: st_archive starting 5664142.desched1
 ---------------------------------------------------
2024-08-15 00:40:11: st_archive success 5664142.desched1
 ---------------------------------------------------
2024-08-15 00:40:17: case.submit starting 5669220.desched1
 ---------------------------------------------------
2024-08-15 00:40:17: case.submit success 5669220.desched1
 ---------------------------------------------------
2024-08-15 00:40:37: case.run starting 5669219.desched1
 ---------------------------------------------------
2024-08-15 00:40:47: model execution starting 5669219.desched1
 ---------------------------------------------------
2024-08-15 06:02:35: model execution success 5669219.desched1
 ---------------------------------------------------
2024-08-15 06:02:35: case.run success 5669219.desched1
 ---------------------------------------------------
2024-08-15 06:02:54: st_archive starting 5669220.desched1
 ---------------------------------------------------
2024-08-15 06:03:38: st_archive success 5669220.desched1
 ---------------------------------------------------
2024-08-15 06:03:39: case.submit starting 5675568.desched1
 ---------------------------------------------------
2024-08-15 06:03:39: case.submit success 5675568.desched1
 ---------------------------------------------------
2024-08-15 06:03:55: case.run starting 5675567.desched1
 ---------------------------------------------------
2024-08-15 06:04:02: model execution starting 5675567.desched1
 ---------------------------------------------------
2024-08-15 11:22:17: model execution success 5675567.desched1
 ---------------------------------------------------
2024-08-15 11:22:17: case.run success 5675567.desched1
 ---------------------------------------------------
2024-08-15 11:22:50: st_archive starting 5675568.desched1
 ---------------------------------------------------
2024-08-15 11:23:52: st_archive success 5675568.desched1
 ---------------------------------------------------
2024-08-15 11:23:52: case.submit starting 5682322.desched1
 ---------------------------------------------------
2024-08-15 11:23:52: case.submit success 5682322.desched1
 ---------------------------------------------------
2024-08-15 11:33:52: case.run starting 5682321.desched1
 ---------------------------------------------------
2024-08-15 11:34:06: model execution starting 5682321.desched1
 ---------------------------------------------------
2024-08-15 17:04:33: model execution success 5682321.desched1
 ---------------------------------------------------
2024-08-15 17:04:33: case.run success 5682321.desched1
 ---------------------------------------------------
2024-08-15 17:06:55: st_archive starting 5682322.desched1
 ---------------------------------------------------
2024-08-15 17:07:58: st_archive success 5682322.desched1
 ---------------------------------------------------
2024-08-15 17:07:58: case.submit starting 5689137.desched1
 ---------------------------------------------------
2024-08-15 17:07:58: case.submit success 5689137.desched1
 ---------------------------------------------------
2024-08-15 17:09:30: case.run starting 5689136.desched1
 ---------------------------------------------------
2024-08-15 17:09:43: model execution starting 5689136.desched1
 ---------------------------------------------------
2024-08-15 22:30:01: model execution success 5689136.desched1
 ---------------------------------------------------
2024-08-15 22:30:01: case.run success 5689136.desched1
 ---------------------------------------------------
2024-08-15 22:30:20: st_archive starting 5689137.desched1
 ---------------------------------------------------
2024-08-15 22:31:06: st_archive success 5689137.desched1
 ---------------------------------------------------
2024-08-15 22:31:07: case.submit starting 5697074.desched1
 ---------------------------------------------------
2024-08-15 22:31:07: case.submit success 5697074.desched1
 ---------------------------------------------------
2024-08-15 22:31:31: case.run starting 5697073.desched1
 ---------------------------------------------------
2024-08-15 22:31:37: model execution starting 5697073.desched1
 ---------------------------------------------------
2024-08-16 04:27:53: model execution success 5697073.desched1
 ---------------------------------------------------
2024-08-16 04:27:53: case.run success 5697073.desched1
 ---------------------------------------------------
2024-08-16 04:28:12: st_archive starting 5697074.desched1
 ---------------------------------------------------
2024-08-16 04:30:02: st_archive success 5697074.desched1
 ---------------------------------------------------
2024-08-16 04:30:10: case.submit starting 5699516.desched1
 ---------------------------------------------------
2024-08-16 04:30:10: case.submit success 5699516.desched1
 ---------------------------------------------------
2024-08-16 04:30:44: case.run starting 5699515.desched1
 ---------------------------------------------------
2024-08-16 04:31:27: model execution starting 5699515.desched1
 ---------------------------------------------------
2024-08-16 09:48:48: model execution success 5699515.desched1
 ---------------------------------------------------
2024-08-16 09:48:48: case.run success 5699515.desched1
 ---------------------------------------------------
2024-08-16 09:49:12: st_archive starting 5699516.desched1
 ---------------------------------------------------
2024-08-16 09:49:57: st_archive success 5699516.desched1
 ---------------------------------------------------
2024-08-16 09:49:57: case.submit starting 5701984.desched1
 ---------------------------------------------------
2024-08-16 09:49:57: case.submit success 5701984.desched1
 ---------------------------------------------------
2024-08-16 09:50:30: case.run starting 5701983.desched1
 ---------------------------------------------------
2024-08-16 09:50:36: model execution starting 5701983.desched1
 ---------------------------------------------------
2024-08-16 15:12:28: model execution success 5701983.desched1
 ---------------------------------------------------
2024-08-16 15:12:28: case.run success 5701983.desched1
 ---------------------------------------------------
2024-08-16 17:56:36: st_archive starting 5701984.desched1
 ---------------------------------------------------
2024-08-16 17:57:16: st_archive success 5701984.desched1
 ---------------------------------------------------
2024-08-16 17:57:18: case.submit starting 5706271.desched1
 ---------------------------------------------------
2024-08-16 17:57:18: case.submit success 5706271.desched1
 ---------------------------------------------------
2024-08-16 17:58:28: case.run starting 5706268.desched1
 ---------------------------------------------------
2024-08-16 17:58:38: model execution starting 5706268.desched1
 ---------------------------------------------------
2024-08-16 23:28:15: model execution success 5706268.desched1
 ---------------------------------------------------
2024-08-16 23:28:15: case.run success 5706268.desched1
 ---------------------------------------------------
2024-08-16 23:28:54: st_archive starting 5706271.desched1
 ---------------------------------------------------
2024-08-16 23:29:40: st_archive success 5706271.desched1
 ---------------------------------------------------
2024-08-16 23:29:57: case.submit starting 5710344.desched1
 ---------------------------------------------------
2024-08-16 23:29:57: case.submit success 5710344.desched1
 ---------------------------------------------------
2024-08-16 23:30:15: case.run starting 5710343.desched1
 ---------------------------------------------------
2024-08-16 23:30:37: model execution starting 5710343.desched1
 ---------------------------------------------------
2024-08-17 04:50:14: model execution success 5710343.desched1
 ---------------------------------------------------
2024-08-17 04:50:15: case.run success 5710343.desched1
 ---------------------------------------------------
2024-08-17 04:50:36: st_archive starting 5710344.desched1
 ---------------------------------------------------
2024-08-17 04:51:17: st_archive success 5710344.desched1
 ---------------------------------------------------
2024-08-19 15:09:08: case.submit starting 5741744.desched1
 ---------------------------------------------------
2024-08-19 15:09:08: case.submit success 5741744.desched1
 ---------------------------------------------------
2024-08-19 15:09:09: xmlchange success <command> ./xmlchange RESUBMIT=20  </command>
 ---------------------------------------------------
2024-08-19 15:10:18: case.run starting 5741743.desched1
 ---------------------------------------------------
2024-08-19 15:10:25: model execution starting 5741743.desched1
 ---------------------------------------------------
2024-08-19 20:29:58: model execution success 5741743.desched1
 ---------------------------------------------------
2024-08-19 20:30:01: case.run success 5741743.desched1
 ---------------------------------------------------
2024-08-19 20:30:22: st_archive starting 5741744.desched1
 ---------------------------------------------------
2024-08-19 20:31:07: st_archive success 5741744.desched1
 ---------------------------------------------------
2024-08-19 20:31:07: case.submit starting 5744598.desched1
 ---------------------------------------------------
2024-08-19 20:31:07: case.submit success 5744598.desched1
 ---------------------------------------------------
2024-08-19 20:31:43: case.run starting 5744597.desched1
 ---------------------------------------------------
2024-08-19 20:31:53: model execution starting 5744597.desched1
 ---------------------------------------------------
2024-08-20 01:54:45: model execution success 5744597.desched1
 ---------------------------------------------------
2024-08-20 01:54:45: case.run success 5744597.desched1
 ---------------------------------------------------
2024-08-20 01:55:44: st_archive starting 5744598.desched1
 ---------------------------------------------------
2024-08-20 01:56:24: st_archive success 5744598.desched1
 ---------------------------------------------------
2024-08-20 01:56:25: case.submit starting 5746555.desched1
 ---------------------------------------------------
2024-08-20 01:56:25: case.submit success 5746555.desched1
 ---------------------------------------------------
2024-08-20 01:56:45: case.run starting 5746554.desched1
 ---------------------------------------------------
2024-08-20 01:56:59: model execution starting 5746554.desched1
 ---------------------------------------------------
2024-08-20 07:21:36: model execution success 5746554.desched1
 ---------------------------------------------------
2024-08-20 07:21:36: case.run success 5746554.desched1
 ---------------------------------------------------
2024-08-20 07:21:53: st_archive starting 5746555.desched1
 ---------------------------------------------------
2024-08-20 07:22:31: st_archive success 5746555.desched1
 ---------------------------------------------------
2024-08-20 07:22:32: case.submit starting 5747669.desched1
 ---------------------------------------------------
2024-08-20 07:22:32: case.submit success 5747669.desched1
 ---------------------------------------------------
2024-08-20 07:22:49: case.run starting 5747668.desched1
 ---------------------------------------------------
2024-08-20 07:22:54: model execution starting 5747668.desched1
 ---------------------------------------------------
2024-08-20 12:40:18: model execution success 5747668.desched1
 ---------------------------------------------------
2024-08-20 12:40:18: case.run success 5747668.desched1
 ---------------------------------------------------
2024-08-20 12:40:40: st_archive starting 5747669.desched1
 ---------------------------------------------------
2024-08-20 12:41:22: st_archive success 5747669.desched1
 ---------------------------------------------------
2024-08-20 12:41:52: case.submit starting 5750498.desched1
 ---------------------------------------------------
2024-08-20 12:41:52: case.submit success 5750498.desched1
 ---------------------------------------------------
2024-08-20 12:42:10: case.run starting 5750497.desched1
 ---------------------------------------------------
2024-08-20 12:43:10: model execution starting 5750497.desched1
 ---------------------------------------------------
