2022-05-23 09:24:20: xmlchange success <command> ./xmlchange CAM_CONFIG_OPTS=-phys cam6 -microphys mg2 -chem waccm_sc_mam4 -nlev 58  </command>
 ---------------------------------------------------
2022-05-23 09:24:20: xmlchange success <command> ./xmlchange ATM_GRID=ne30np4.pg3  </command>
 ---------------------------------------------------
2022-05-23 09:24:34: case.setup starting 
 ---------------------------------------------------
2022-05-23 09:24:36: case.setup success 
 ---------------------------------------------------
2022-05-23 09:25:17: case.build starting 
 ---------------------------------------------------
2022-05-23 09:29:25: case.build starting 
 ---------------------------------------------------
2022-05-23 09:34:43: case.build error 
ERROR: /glade/work/hannay/cesm_tags/cesm3_cam6_3_041_MOM3/components/cdeps/cime_config/buildlib FAILED, cat /glade/scratch/hannay/b.cesm3_cam041_mom.B1850WcMOM.ne30_L58_t061.cice5.cam6.005/bld/CDEPS.bldlog.220523-092925
 ---------------------------------------------------
2022-05-23 09:57:15: case.build starting 
 ---------------------------------------------------
2022-05-23 10:02:33: case.build error 
ERROR: /glade/work/hannay/cesm_tags/cesm3_cam6_3_041_MOM3/components/cdeps/cime_config/buildlib FAILED, cat /glade/scratch/hannay/b.cesm3_cam041_mom.B1850WcMOM.ne30_L58_t061.cice5.cam6.005/bld/CDEPS.bldlog.220523-095715
 ---------------------------------------------------
2022-05-23 10:05:14: case.build starting 
 ---------------------------------------------------
2022-05-23 10:07:39: case.build starting 
 ---------------------------------------------------
CESM version is cesm2_3_beta08-11-g5a56ad39
Processing externals description file : Externals.cfg
Processing externals description file : Externals_CAM.cfg
Processing externals description file : Externals.cfg
Processing externals description file : .gitmodules
Processing submodules description file : .gitmodules
Processing externals description file : Externals_CDEPS.cfg
Processing externals description file : Externals_CISM.cfg
Processing externals description file : Externals_CLM.cfg
Processing externals description file : Externals_FMS.cfg
Processing externals description file : Externals.cfg
Processing externals description file : ../Externals_MOM.cfg
Processing submodules description file : /glade/work/hannay/cesm_tags/cesm3_cam6_3_041_MOM3/components/mom/MOM6/.gitmodules
Processing externals description file : Externals_POP.cfg
Checking status of externals: ccs_config, cam, chem_proc, carma, cosp2, clubb, silhs, pumas, atmos_phys, atmos_cubed_sphere, mpas, cice5, cice6, cice, icepack, cmeps, cdeps, fox, genf90, cpl7, share, mct, parallelio, cime, cism, source_cism, clm, fates, fms, fms, mom, mom, pkg/cvmix-src, pkg/gsw-fortran, mosart, pop, cvmix, marbl, rtm, ww3, ww3dev, 
 M  ./ccs_config
        modified sandbox, on ccs_config_cesm0.0.24
 M  ./cime
        modified sandbox, on cime6.0.16
    ./components/cam
        clean sandbox, on cam6_3_041
    ./components/cam/chem_proc
        clean sandbox, on tools/proc_atm/chem_proc/release_tags/chem_proc5_0_04
    ./components/cam/src/atmos_phys
        clean sandbox, on atmos_phys0_00_011
    ./components/cam/src/dynamics/fv3/atmos_cubed_sphere
        clean sandbox, on fv3_cesm.04
    ./components/cam/src/dynamics/mpas/dycore
        clean sandbox, on ba25bd071de6100c7263e283194bcc076bce72d7
    ./components/cam/src/physics/carma/base
        clean sandbox, on carma3_49
    ./components/cam/src/physics/clubb
        clean sandbox, on clubb_release_b76a124_20200220_c20200320
    ./components/cam/src/physics/cosp2/src
        clean sandbox, on CFMIP/COSPv2.0/tags/v2.1.4cesm/src
    ./components/cam/src/physics/pumas
        clean sandbox, on pumas_cam-release_v1.17
    ./components/cam/src/physics/silhs
        clean sandbox, on silhs_clubb_release_b76a124_20200220_c20200320
    ./components/cdeps
        clean sandbox, on cdeps0.12.41
    ./components/cdeps/fox
        clean sandbox, on 4.1.2.1
    ./components/cdeps/share/genf90
        clean sandbox, on genf90_200608
    ./components/cice
        clean sandbox, on cesm_cice6_2_0_16
    ./components/cice/src
        clean sandbox, on cice6_20211214c
    ./components/cice/src/icepack
        clean sandbox, on 152bd701e0cf3ec4385e5ce81918ba94e7a791cb
    ./components/cice5
        clean sandbox, on cice5_20220128
    ./components/cism
        clean sandbox, on cismwrap_2_1_95
    ./components/cism/source_cism
        clean sandbox, on cism_main_2.01.011
 M  ./components/clm
        modified sandbox, on ctsm5.1.dev082
    ./components/clm/src/fates
        clean sandbox, on sci.1.54.0_api.22.0.0
    ./components/cmeps
        clean sandbox, on cmeps0.13.54
    ./components/cpl7
        clean sandbox, on cpl7.0.12
  o ./components/mom
        clean sandbox, on mi_220422
    ./components/mom/MOM6
        clean sandbox, on dev/ncar_220422
    ./components/mom/MOM6/pkg/CVMix-src
        clean sandbox, on v0.98-beta
    ./components/mom/MOM6/pkg/GSW-Fortran
        clean sandbox, on 29e64d652786e1d076a05128c920f394202bfe10
    ./components/mosart
        clean sandbox, on mosart1_0_45
    ./components/pop
        clean sandbox, on cesm_pop_2_1_20220113
    ./components/pop/externals/CVMix
        clean sandbox, on v0.98-beta
    ./components/pop/externals/MARBL
        clean sandbox, on marbl0.40.3
    ./components/rtm
        clean sandbox, on rtm1_0_78
    ./components/ww3
        clean sandbox, on ww3_210803
  o ./components/ww3dev
        clean sandbox, on dev/unified_220202
s o ./libraries/FMS
        clean sandbox, 1a4ae42ee0f4beb7a516c08c71d89f91c1fc681d --> origin/update_src
    ./libraries/FMS/src
        clean sandbox, on 2020.04.03
    ./libraries/mct
        clean sandbox, on MCT_2.11.0
    ./libraries/parallelio
        clean sandbox, on pio2_5_6
    ./share
        clean sandbox, on share1.0.10
2022-05-23 10:26:44: case.build success 
 ---------------------------------------------------
2022-05-23 10:41:03: case.submit starting 
 ---------------------------------------------------
2022-05-23 10:41:03: case.submit error 
ERROR: Command: 'qsub -q regular -l walltime=12:00:00 -A 93300722 -v ARGS_FOR_SCRIPT='--resubmit' .case.run' failed with error 'qsub: Invalid account, available accounts:
Project, Status, Active
P03010039, Normal, True
P19010000, Normal, True
CESM0002, Normal, True
UCUB0090, Normal, True
P93300065, Normal, True
CESM0019, Normal, True
P93300324, Normal, True
P93300606, Normal, True
P93300642, Normal, True
P93300042, Overspent, True' from dir '/glade/p/cesmdata/cseg/runs/cesm2_0/b.cesm3_cam041_mom.B1850WcMOM.ne30_L58_t061.cice5.cam6.005'
 ---------------------------------------------------
2022-05-23 10:41:26: xmlchange success <command> ./xmlchange PROJECT=CESM0019,JOB_QUEUE=regular,RESUBMIT=1,STOP_N=12,STOP_OPTION=nmonths  </command>
 ---------------------------------------------------
2022-05-23 10:43:44: xmlchange success <command> ./xmlchange PROJECT=CESM0019,JOB_QUEUE=regular,RESUBMIT=1,STOP_N=12,STOP_OPTION=nmonths  </command>
 ---------------------------------------------------
2022-05-23 10:43:49: case.submit starting 4287933.chadmin1.ib0.cheyenne.ucar.edu
 ---------------------------------------------------
2022-05-23 10:43:49: case.submit success 4287933.chadmin1.ib0.cheyenne.ucar.edu
 ---------------------------------------------------
2022-05-23 14:14:58: case.build starting 
 ---------------------------------------------------
CESM version is cesm2_3_beta08-11-g5a56ad39
Processing externals description file : Externals.cfg
Processing externals description file : Externals_CAM.cfg
Processing externals description file : Externals.cfg
Processing externals description file : .gitmodules
Processing submodules description file : .gitmodules
Processing externals description file : Externals_CDEPS.cfg
Processing externals description file : Externals_CISM.cfg
Processing externals description file : Externals_CLM.cfg
Processing externals description file : Externals_FMS.cfg
Processing externals description file : Externals.cfg
Processing externals description file : ../Externals_MOM.cfg
Processing submodules description file : /glade/work/hannay/cesm_tags/cesm3_cam6_3_041_MOM3/components/mom/MOM6/.gitmodules
Processing externals description file : Externals_POP.cfg
Checking status of externals: ccs_config, cam, chem_proc, carma, cosp2, clubb, silhs, pumas, atmos_phys, atmos_cubed_sphere, mpas, cice5, cice6, cice, icepack, cmeps, cdeps, fox, genf90, cpl7, share, mct, parallelio, cime, cism, source_cism, clm, fates, fms, fms, mom, mom, pkg/cvmix-src, pkg/gsw-fortran, mosart, pop, cvmix, marbl, rtm, ww3, ww3dev, 
 M  ./ccs_config
        modified sandbox, on ccs_config_cesm0.0.24
 M  ./cime
        modified sandbox, on cime6.0.16
    ./components/cam
        clean sandbox, on cam6_3_041
    ./components/cam/chem_proc
        clean sandbox, on tools/proc_atm/chem_proc/release_tags/chem_proc5_0_04
    ./components/cam/src/atmos_phys
        clean sandbox, on atmos_phys0_00_011
    ./components/cam/src/dynamics/fv3/atmos_cubed_sphere
        clean sandbox, on fv3_cesm.04
    ./components/cam/src/dynamics/mpas/dycore
        clean sandbox, on ba25bd071de6100c7263e283194bcc076bce72d7
    ./components/cam/src/physics/carma/base
        clean sandbox, on carma3_49
    ./components/cam/src/physics/clubb
        clean sandbox, on clubb_release_b76a124_20200220_c20200320
    ./components/cam/src/physics/cosp2/src
        clean sandbox, on CFMIP/COSPv2.0/tags/v2.1.4cesm/src
    ./components/cam/src/physics/pumas
        clean sandbox, on pumas_cam-release_v1.17
    ./components/cam/src/physics/silhs
        clean sandbox, on silhs_clubb_release_b76a124_20200220_c20200320
    ./components/cdeps
        clean sandbox, on cdeps0.12.41
    ./components/cdeps/fox
        clean sandbox, on 4.1.2.1
    ./components/cdeps/share/genf90
        clean sandbox, on genf90_200608
    ./components/cice
        clean sandbox, on cesm_cice6_2_0_16
    ./components/cice/src
        clean sandbox, on cice6_20211214c
    ./components/cice/src/icepack
        clean sandbox, on 152bd701e0cf3ec4385e5ce81918ba94e7a791cb
    ./components/cice5
        clean sandbox, on cice5_20220128
    ./components/cism
        clean sandbox, on cismwrap_2_1_95
    ./components/cism/source_cism
        clean sandbox, on cism_main_2.01.011
 M  ./components/clm
        modified sandbox, on ctsm5.1.dev082
    ./components/clm/src/fates
        clean sandbox, on sci.1.54.0_api.22.0.0
    ./components/cmeps
        clean sandbox, on cmeps0.13.54
    ./components/cpl7
        clean sandbox, on cpl7.0.12
  o ./components/mom
        clean sandbox, on mi_220422
    ./components/mom/MOM6
        clean sandbox, on dev/ncar_220422
    ./components/mom/MOM6/pkg/CVMix-src
        clean sandbox, on v0.98-beta
    ./components/mom/MOM6/pkg/GSW-Fortran
        clean sandbox, on 29e64d652786e1d076a05128c920f394202bfe10
    ./components/mosart
        clean sandbox, on mosart1_0_45
    ./components/pop
        clean sandbox, on cesm_pop_2_1_20220113
    ./components/pop/externals/CVMix
        clean sandbox, on v0.98-beta
    ./components/pop/externals/MARBL
        clean sandbox, on marbl0.40.3
    ./components/rtm
        clean sandbox, on rtm1_0_78
    ./components/ww3
        clean sandbox, on ww3_210803
  o ./components/ww3dev
        clean sandbox, on dev/unified_220202
s o ./libraries/FMS
        clean sandbox, 1a4ae42ee0f4beb7a516c08c71d89f91c1fc681d --> origin/update_src
    ./libraries/FMS/src
        clean sandbox, on 2020.04.03
    ./libraries/mct
        clean sandbox, on MCT_2.11.0
    ./libraries/parallelio
        clean sandbox, on pio2_5_6
    ./share
        clean sandbox, on share1.0.10
2022-05-23 14:16:20: case.build success 
 ---------------------------------------------------
2022-05-23 14:16:45: case.build starting 
 ---------------------------------------------------
2022-05-23 14:24:41: case.build starting 
 ---------------------------------------------------
CESM version is cesm2_3_beta08-11-g5a56ad39
Processing externals description file : Externals.cfg
Processing externals description file : Externals_CAM.cfg
Processing externals description file : Externals.cfg
Processing externals description file : .gitmodules
Processing submodules description file : .gitmodules
Processing externals description file : Externals_CDEPS.cfg
Processing externals description file : Externals_CISM.cfg
Processing externals description file : Externals_CLM.cfg
Processing externals description file : Externals_FMS.cfg
Processing externals description file : Externals.cfg
Processing externals description file : ../Externals_MOM.cfg
Processing submodules description file : /glade/work/hannay/cesm_tags/cesm3_cam6_3_041_MOM3/components/mom/MOM6/.gitmodules
Processing externals description file : Externals_POP.cfg
Checking status of externals: ccs_config, cam, chem_proc, carma, cosp2, clubb, silhs, pumas, atmos_phys, atmos_cubed_sphere, mpas, cice5, cice6, cice, icepack, cmeps, cdeps, fox, genf90, cpl7, share, mct, parallelio, cime, cism, source_cism, clm, fates, fms, fms, mom, mom, pkg/cvmix-src, pkg/gsw-fortran, mosart, pop, cvmix, marbl, rtm, ww3, ww3dev, 
 M  ./ccs_config
        modified sandbox, on ccs_config_cesm0.0.24
 M  ./cime
        modified sandbox, on cime6.0.16
    ./components/cam
        clean sandbox, on cam6_3_041
    ./components/cam/chem_proc
        clean sandbox, on tools/proc_atm/chem_proc/release_tags/chem_proc5_0_04
    ./components/cam/src/atmos_phys
        clean sandbox, on atmos_phys0_00_011
    ./components/cam/src/dynamics/fv3/atmos_cubed_sphere
        clean sandbox, on fv3_cesm.04
    ./components/cam/src/dynamics/mpas/dycore
        clean sandbox, on ba25bd071de6100c7263e283194bcc076bce72d7
    ./components/cam/src/physics/carma/base
        clean sandbox, on carma3_49
    ./components/cam/src/physics/clubb
        clean sandbox, on clubb_release_b76a124_20200220_c20200320
    ./components/cam/src/physics/cosp2/src
        clean sandbox, on CFMIP/COSPv2.0/tags/v2.1.4cesm/src
    ./components/cam/src/physics/pumas
        clean sandbox, on pumas_cam-release_v1.17
    ./components/cam/src/physics/silhs
        clean sandbox, on silhs_clubb_release_b76a124_20200220_c20200320
    ./components/cdeps
        clean sandbox, on cdeps0.12.41
    ./components/cdeps/fox
        clean sandbox, on 4.1.2.1
    ./components/cdeps/share/genf90
        clean sandbox, on genf90_200608
    ./components/cice
        clean sandbox, on cesm_cice6_2_0_16
    ./components/cice/src
        clean sandbox, on cice6_20211214c
    ./components/cice/src/icepack
        clean sandbox, on 152bd701e0cf3ec4385e5ce81918ba94e7a791cb
    ./components/cice5
        clean sandbox, on cice5_20220128
    ./components/cism
        clean sandbox, on cismwrap_2_1_95
    ./components/cism/source_cism
        clean sandbox, on cism_main_2.01.011
 M  ./components/clm
        modified sandbox, on ctsm5.1.dev082
    ./components/clm/src/fates
        clean sandbox, on sci.1.54.0_api.22.0.0
    ./components/cmeps
        clean sandbox, on cmeps0.13.54
    ./components/cpl7
        clean sandbox, on cpl7.0.12
  o ./components/mom
        clean sandbox, on mi_220422
    ./components/mom/MOM6
        clean sandbox, on dev/ncar_220422
    ./components/mom/MOM6/pkg/CVMix-src
        clean sandbox, on v0.98-beta
    ./components/mom/MOM6/pkg/GSW-Fortran
        clean sandbox, on 29e64d652786e1d076a05128c920f394202bfe10
    ./components/mosart
        clean sandbox, on mosart1_0_45
    ./components/pop
        clean sandbox, on cesm_pop_2_1_20220113
    ./components/pop/externals/CVMix
        clean sandbox, on v0.98-beta
    ./components/pop/externals/MARBL
        clean sandbox, on marbl0.40.3
    ./components/rtm
        clean sandbox, on rtm1_0_78
    ./components/ww3
        clean sandbox, on ww3_210803
  o ./components/ww3dev
        clean sandbox, on dev/unified_220202
s o ./libraries/FMS
        clean sandbox, 1a4ae42ee0f4beb7a516c08c71d89f91c1fc681d --> origin/update_src
    ./libraries/FMS/src
        clean sandbox, on 2020.04.03
    ./libraries/mct
        clean sandbox, on MCT_2.11.0
    ./libraries/parallelio
        clean sandbox, on pio2_5_6
    ./share
        clean sandbox, on share1.0.10
2022-05-23 14:28:10: case.build success 
 ---------------------------------------------------
2022-05-23 14:42:56: xmlchange success <command> ./xmlchange PROJECT=CESM0019,JOB_QUEUE=regular,RESUBMIT=3,STOP_N=3,STOP_OPTION=nyears  </command>
 ---------------------------------------------------
2022-05-23 14:51:21: case.build starting 
 ---------------------------------------------------
CESM version is cesm2_3_beta08-11-g5a56ad39
Processing externals description file : Externals.cfg
Processing externals description file : Externals_CAM.cfg
Processing externals description file : Externals.cfg
Processing externals description file : .gitmodules
Processing submodules description file : .gitmodules
Processing externals description file : Externals_CDEPS.cfg
Processing externals description file : Externals_CISM.cfg
Processing externals description file : Externals_CLM.cfg
Processing externals description file : Externals_FMS.cfg
Processing externals description file : Externals.cfg
Processing externals description file : ../Externals_MOM.cfg
Processing submodules description file : /glade/work/hannay/cesm_tags/cesm3_cam6_3_041_MOM3/components/mom/MOM6/.gitmodules
Processing externals description file : Externals_POP.cfg
Checking status of externals: ccs_config, cam, chem_proc, carma, cosp2, clubb, silhs, pumas, atmos_phys, atmos_cubed_sphere, mpas, cice5, cice6, cice, icepack, cmeps, cdeps, fox, genf90, cpl7, share, mct, parallelio, cime, cism, source_cism, clm, fates, fms, fms, mom, mom, pkg/cvmix-src, pkg/gsw-fortran, mosart, pop, cvmix, marbl, rtm, ww3, ww3dev, 
 M  ./ccs_config
        modified sandbox, on ccs_config_cesm0.0.24
 M  ./cime
        modified sandbox, on cime6.0.16
    ./components/cam
        clean sandbox, on cam6_3_041
    ./components/cam/chem_proc
        clean sandbox, on tools/proc_atm/chem_proc/release_tags/chem_proc5_0_04
    ./components/cam/src/atmos_phys
        clean sandbox, on atmos_phys0_00_011
    ./components/cam/src/dynamics/fv3/atmos_cubed_sphere
        clean sandbox, on fv3_cesm.04
    ./components/cam/src/dynamics/mpas/dycore
        clean sandbox, on ba25bd071de6100c7263e283194bcc076bce72d7
    ./components/cam/src/physics/carma/base
        clean sandbox, on carma3_49
    ./components/cam/src/physics/clubb
        clean sandbox, on clubb_release_b76a124_20200220_c20200320
    ./components/cam/src/physics/cosp2/src
        clean sandbox, on CFMIP/COSPv2.0/tags/v2.1.4cesm/src
    ./components/cam/src/physics/pumas
        clean sandbox, on pumas_cam-release_v1.17
    ./components/cam/src/physics/silhs
        clean sandbox, on silhs_clubb_release_b76a124_20200220_c20200320
    ./components/cdeps
        clean sandbox, on cdeps0.12.41
    ./components/cdeps/fox
        clean sandbox, on 4.1.2.1
    ./components/cdeps/share/genf90
        clean sandbox, on genf90_200608
    ./components/cice
        clean sandbox, on cesm_cice6_2_0_16
    ./components/cice/src
        clean sandbox, on cice6_20211214c
    ./components/cice/src/icepack
        clean sandbox, on 152bd701e0cf3ec4385e5ce81918ba94e7a791cb
    ./components/cice5
        clean sandbox, on cice5_20220128
    ./components/cism
        clean sandbox, on cismwrap_2_1_95
    ./components/cism/source_cism
        clean sandbox, on cism_main_2.01.011
 M  ./components/clm
        modified sandbox, on ctsm5.1.dev082
    ./components/clm/src/fates
        clean sandbox, on sci.1.54.0_api.22.0.0
    ./components/cmeps
        clean sandbox, on cmeps0.13.54
    ./components/cpl7
        clean sandbox, on cpl7.0.12
  o ./components/mom
        clean sandbox, on mi_220422
    ./components/mom/MOM6
        clean sandbox, on dev/ncar_220422
    ./components/mom/MOM6/pkg/CVMix-src
        clean sandbox, on v0.98-beta
    ./components/mom/MOM6/pkg/GSW-Fortran
        clean sandbox, on 29e64d652786e1d076a05128c920f394202bfe10
    ./components/mosart
        clean sandbox, on mosart1_0_45
    ./components/pop
        clean sandbox, on cesm_pop_2_1_20220113
    ./components/pop/externals/CVMix
        clean sandbox, on v0.98-beta
    ./components/pop/externals/MARBL
        clean sandbox, on marbl0.40.3
    ./components/rtm
        clean sandbox, on rtm1_0_78
    ./components/ww3
        clean sandbox, on ww3_210803
  o ./components/ww3dev
        clean sandbox, on dev/unified_220202
s o ./libraries/FMS
        clean sandbox, 1a4ae42ee0f4beb7a516c08c71d89f91c1fc681d --> origin/update_src
    ./libraries/FMS/src
        clean sandbox, on 2020.04.03
    ./libraries/mct
        clean sandbox, on MCT_2.11.0
    ./libraries/parallelio
        clean sandbox, on pio2_5_6
    ./share
        clean sandbox, on share1.0.10
2022-05-23 14:52:34: case.build success 
 ---------------------------------------------------
2022-05-23 14:52:49: xmlchange success <command> ./xmlchange PROJECT=CESM0019,JOB_QUEUE=regular,RESUBMIT=3,STOP_N=3,STOP_OPTION=nyears  </command>
 ---------------------------------------------------
2022-05-23 14:52:55: case.submit starting 4291698.chadmin1.ib0.cheyenne.ucar.edu
 ---------------------------------------------------
2022-05-23 14:52:55: case.submit success 4291698.chadmin1.ib0.cheyenne.ucar.edu
 ---------------------------------------------------
2022-05-23 15:26:06: case.run starting 4291697.chadmin1.ib0.cheyenne.ucar.edu
 ---------------------------------------------------
2022-05-23 15:26:12: model execution starting 4291697.chadmin1.ib0.cheyenne.ucar.edu
 ---------------------------------------------------
2022-05-23 23:16:56: model execution success 4291697.chadmin1.ib0.cheyenne.ucar.edu
 ---------------------------------------------------
2022-05-23 23:16:56: case.run success 4291697.chadmin1.ib0.cheyenne.ucar.edu
 ---------------------------------------------------
2022-05-23 23:17:10: st_archive starting 4291698.chadmin1.ib0.cheyenne.ucar.edu
 ---------------------------------------------------
2022-05-23 23:17:24: st_archive success 4291698.chadmin1.ib0.cheyenne.ucar.edu
 ---------------------------------------------------
2022-05-23 23:17:25: case.submit starting 4305619.chadmin1.ib0.cheyenne.ucar.edu
 ---------------------------------------------------
2022-05-23 23:17:25: case.submit success 4305619.chadmin1.ib0.cheyenne.ucar.edu
 ---------------------------------------------------
2022-05-24 02:22:19: case.run starting 4305618.chadmin1.ib0.cheyenne.ucar.edu
 ---------------------------------------------------
2022-05-24 02:22:25: model execution starting 4305618.chadmin1.ib0.cheyenne.ucar.edu
 ---------------------------------------------------
2022-05-24 10:32:50: model execution success 4305618.chadmin1.ib0.cheyenne.ucar.edu
 ---------------------------------------------------
2022-05-24 10:32:50: case.run success 4305618.chadmin1.ib0.cheyenne.ucar.edu
 ---------------------------------------------------
2022-05-24 10:33:02: st_archive starting 4305619.chadmin1.ib0.cheyenne.ucar.edu
 ---------------------------------------------------
2022-05-24 10:33:17: st_archive success 4305619.chadmin1.ib0.cheyenne.ucar.edu
 ---------------------------------------------------
2022-05-24 10:33:17: case.submit starting 4315162.chadmin1.ib0.cheyenne.ucar.edu
 ---------------------------------------------------
2022-05-24 10:33:17: case.submit success 4315162.chadmin1.ib0.cheyenne.ucar.edu
 ---------------------------------------------------
2022-05-25 06:04:50: case.run starting 4315161.chadmin1.ib0.cheyenne.ucar.edu
 ---------------------------------------------------
2022-05-25 06:04:56: model execution starting 4315161.chadmin1.ib0.cheyenne.ucar.edu
 ---------------------------------------------------
2022-05-25 13:46:36: model execution error 
ERROR: Command: 'mpiexec_mpt -p "%g:"  -np 4428  omplace -tm open64 -vv /glade/scratch/hannay/b.cesm3_cam041_mom.B1850WcMOM.ne30_L58_t061.cice5.cam6.005/bld/cesm.exe   >> cesm.log.$LID 2>&1 ' failed with error '' from dir '/glade/scratch/hannay/b.cesm3_cam041_mom.B1850WcMOM.ne30_L58_t061.cice5.cam6.005/run'
 ---------------------------------------------------
2022-05-25 13:46:36: case.run error 
ERROR: RUN FAIL: Command 'mpiexec_mpt -p "%g:"  -np 4428  omplace -tm open64 -vv /glade/scratch/hannay/b.cesm3_cam041_mom.B1850WcMOM.ne30_L58_t061.cice5.cam6.005/bld/cesm.exe   >> cesm.log.$LID 2>&1 ' failed
See log file for details: /glade/scratch/hannay/b.cesm3_cam041_mom.B1850WcMOM.ne30_L58_t061.cice5.cam6.005/run/cesm.log.4315161.chadmin1.ib0.cheyenne.ucar.edu.220525-060450
 ---------------------------------------------------
2022-05-26 11:19:57: case.submit starting 4395984.chadmin1.ib0.cheyenne.ucar.edu
 ---------------------------------------------------
2022-05-26 11:19:57: case.submit success 4395984.chadmin1.ib0.cheyenne.ucar.edu
 ---------------------------------------------------
2022-05-27 05:28:21: case.run starting 4395983.chadmin1.ib0.cheyenne.ucar.edu
 ---------------------------------------------------
2022-05-27 05:28:27: model execution starting 4395983.chadmin1.ib0.cheyenne.ucar.edu
 ---------------------------------------------------
2022-05-27 09:35:40: xmlchange success <command> ./xmlchange RESUBMIT=4  </command>
 ---------------------------------------------------
2022-05-27 12:55:45: model execution error 
ERROR: Command: 'mpiexec_mpt -p "%g:"  -np 4428  omplace -tm open64 -vv /glade/scratch/hannay/b.cesm3_cam041_mom.B1850WcMOM.ne30_L58_t061.cice5.cam6.005/bld/cesm.exe   >> cesm.log.$LID 2>&1 ' failed with error '' from dir '/glade/scratch/hannay/b.cesm3_cam041_mom.B1850WcMOM.ne30_L58_t061.cice5.cam6.005/run'
 ---------------------------------------------------
2022-05-27 12:55:45: case.run error 
ERROR: RUN FAIL: Command 'mpiexec_mpt -p "%g:"  -np 4428  omplace -tm open64 -vv /glade/scratch/hannay/b.cesm3_cam041_mom.B1850WcMOM.ne30_L58_t061.cice5.cam6.005/bld/cesm.exe   >> cesm.log.$LID 2>&1 ' failed
See log file for details: /glade/scratch/hannay/b.cesm3_cam041_mom.B1850WcMOM.ne30_L58_t061.cice5.cam6.005/run/cesm.log.4395983.chadmin1.ib0.cheyenne.ucar.edu.220527-052821
 ---------------------------------------------------
2022-05-27 13:06:25: xmlchange success <command> ./xmlchange STOP_N=1,RESUBMIT=13  </command>
 ---------------------------------------------------
2022-05-27 14:40:49: xmlchange success <command> ./xmlchange CREATE_ESMF_PET_FILES=TRUE  </command>
 ---------------------------------------------------
2022-05-27 14:51:55: xmlchange success <command> ./xmlchange JOB_QUEUE=premium  </command>
 ---------------------------------------------------
2022-05-27 14:52:02: xmlchange success <command> ./xmlchange JOB_QUEUE=premium,STOP_N=1  </command>
 ---------------------------------------------------
2022-05-27 14:52:12: case.submit starting 4414742.chadmin1.ib0.cheyenne.ucar.edu
 ---------------------------------------------------
2022-05-27 14:52:12: case.submit success 4414742.chadmin1.ib0.cheyenne.ucar.edu
 ---------------------------------------------------
2022-05-27 14:58:54: xmlchange success <command> ./xmlchange JOB_QUEUE=regular  </command>
 ---------------------------------------------------
2022-05-27 17:02:05: case.run starting 4414741.chadmin1.ib0.cheyenne.ucar.edu
 ---------------------------------------------------
2022-05-27 17:02:12: model execution starting 4414741.chadmin1.ib0.cheyenne.ucar.edu
 ---------------------------------------------------
2022-05-27 20:02:55: model execution success 4414741.chadmin1.ib0.cheyenne.ucar.edu
 ---------------------------------------------------
2022-05-27 20:02:55: case.run success 4414741.chadmin1.ib0.cheyenne.ucar.edu
 ---------------------------------------------------
2022-05-27 20:03:12: st_archive starting 4414742.chadmin1.ib0.cheyenne.ucar.edu
 ---------------------------------------------------
2022-05-27 20:03:25: st_archive success 4414742.chadmin1.ib0.cheyenne.ucar.edu
 ---------------------------------------------------
2022-05-27 20:03:29: case.submit starting 4418187.chadmin1.ib0.cheyenne.ucar.edu
 ---------------------------------------------------
2022-05-27 20:03:29: case.submit success 4418187.chadmin1.ib0.cheyenne.ucar.edu
 ---------------------------------------------------
2022-05-27 20:12:49: case.run starting 4418185.chadmin1.ib0.cheyenne.ucar.edu
 ---------------------------------------------------
2022-05-27 20:12:56: model execution starting 4418185.chadmin1.ib0.cheyenne.ucar.edu
 ---------------------------------------------------
2022-05-27 23:10:37: model execution success 4418185.chadmin1.ib0.cheyenne.ucar.edu
 ---------------------------------------------------
2022-05-27 23:10:37: case.run success 4418185.chadmin1.ib0.cheyenne.ucar.edu
 ---------------------------------------------------
2022-05-27 23:10:53: st_archive starting 4418187.chadmin1.ib0.cheyenne.ucar.edu
 ---------------------------------------------------
2022-05-27 23:11:08: st_archive success 4418187.chadmin1.ib0.cheyenne.ucar.edu
 ---------------------------------------------------
2022-05-27 23:11:08: case.submit starting 4419918.chadmin1.ib0.cheyenne.ucar.edu
 ---------------------------------------------------
2022-05-27 23:11:08: case.submit success 4419918.chadmin1.ib0.cheyenne.ucar.edu
 ---------------------------------------------------
2022-05-28 06:01:19: case.run starting 4419917.chadmin1.ib0.cheyenne.ucar.edu
 ---------------------------------------------------
2022-05-28 06:01:26: model execution starting 4419917.chadmin1.ib0.cheyenne.ucar.edu
 ---------------------------------------------------
2022-05-28 09:04:04: model execution success 4419917.chadmin1.ib0.cheyenne.ucar.edu
 ---------------------------------------------------