2023-09-07 14:53:04: xmlchange success <command> ./xmlchange --append CAM_CONFIG_OPTS=-cosp  </command>
 ---------------------------------------------------
2023-09-07 14:53:05: case.setup starting 
 ---------------------------------------------------
2023-09-07 14:53:07: case.setup success 
 ---------------------------------------------------
2023-09-07 14:53:07: xmlchange success <command> ./xmlchange RUN_STARTDATE=1995-01-01  </command>
 ---------------------------------------------------
2023-09-07 14:53:07: xmlchange success <command> ./xmlchange STOP_N=2  </command>
 ---------------------------------------------------
2023-09-07 14:53:08: xmlchange success <command> ./xmlchange STOP_OPTION=nyears  </command>
 ---------------------------------------------------
2023-09-07 14:53:08: xmlchange success <command> ./xmlchange RESUBMIT=5  </command>
 ---------------------------------------------------
2023-09-07 14:53:09: xmlchange success <command> ./xmlchange RUN_TYPE=hybrid  </command>
 ---------------------------------------------------
2023-09-07 14:53:09: xmlchange success <command> ./xmlchange RUN_REFCASE=f.cam6_3_107.FLTHIST_v0a.ne30.clm5_1.001  </command>
 ---------------------------------------------------
2023-09-07 14:53:09: xmlchange success <command> ./xmlchange RUN_REFDATE=1994-01-01  </command>
 ---------------------------------------------------
2023-09-07 14:53:10: xmlchange success <command> ./xmlchange GET_REFCASE=TRUE  </command>
 ---------------------------------------------------
2023-09-07 14:53:10: xmlchange success <command> ./xmlchange RUN_REFDIR=cesm2_init  </command>
 ---------------------------------------------------
2023-09-07 14:53:20: case.build starting 
 ---------------------------------------------------
2023-09-07 14:55:25: case.build starting 
 ---------------------------------------------------
2023-09-07 14:57:37: case.build error 
ERROR: File /glade/p/cesmdata/cseg/runs/cesm2_0/f.cam6_3_119.FLTHIST_ne30.r328_gamma0.33_soae_numcin2.001/env_run.xml appears to have changed without a corresponding invalidation.
 ---------------------------------------------------
2023-09-07 14:58:29: case.build starting 
 ---------------------------------------------------
2023-09-07 14:59:30: case.build starting 
 ---------------------------------------------------
2023-09-07 14:59:39: case.build error 
ERROR: BUILD FAIL: buildexe failed, cat /glade/derecho/scratch/hannay/f.cam6_3_119.FLTHIST_ne30.r328_gamma0.33_soae_numcin2.001/bld/cesm.bldlog.230907-145320
 ---------------------------------------------------
2023-09-07 15:00:13: case.build error 
ERROR: BUILD FAIL: buildexe failed, cat /glade/derecho/scratch/hannay/f.cam6_3_119.FLTHIST_ne30.r328_gamma0.33_soae_numcin2.001/bld/cesm.bldlog.230907-145829
 ---------------------------------------------------
2023-09-07 15:00:24: case.build success 
 ---------------------------------------------------
2023-09-07 15:00:55: case.build starting 
 ---------------------------------------------------
2023-09-07 15:01:23: case.build success 
 ---------------------------------------------------
2023-09-07 15:01:24: xmlchange success <command> ./xmlchange PROJECT=CESM0023,RESUBMIT=5,STOP_N=1,STOP_OPTION=nyears  </command>
 ---------------------------------------------------
2023-09-07 15:01:24: xmlchange success <command> ./xmlchange REST_OPTION=nyears,REST_N=1  </command>
 ---------------------------------------------------
2023-09-07 15:01:25: xmlchange success <command> ./xmlchange JOB_WALLCLOCK_TIME=12:00:00  </command>
 ---------------------------------------------------
2023-09-07 15:01:30: case.submit starting 1331695.desched1
 ---------------------------------------------------
2023-09-07 15:01:30: case.submit success 1331695.desched1
 ---------------------------------------------------
2023-09-07 15:01:53: case.run starting 1331694.desched1
 ---------------------------------------------------
2023-09-07 15:01:57: model execution starting 1331694.desched1
 ---------------------------------------------------
