2024-05-23 14:38:59: case.setup starting 
 ---------------------------------------------------
2024-05-23 14:39:01: case.setup success 
 ---------------------------------------------------
2024-05-23 14:39:35: xmlchange success <command> ./xmlchange MOM6_VERTICAL_GRID=hycom1  </command>
 ---------------------------------------------------
2024-05-23 14:46:01: xmlchange success <command> ./xmlchange MOM6_VERTICAL_GRID=hycom1  </command>
 ---------------------------------------------------
2024-05-23 14:52:24: case.build starting 
 ---------------------------------------------------
2024-05-23 15:07:26: case.build success 
 ---------------------------------------------------
2024-05-24 09:25:45: xmlchange success <command> ./xmlchange PROJECT=CESM0023,RESUBMIT=10,STOP_N=2,STOP_OPTION=nyears  </command>
 ---------------------------------------------------
2024-05-24 09:25:46: xmlchange success <command> ./xmlchange REST_OPTION=nyears,REST_N=1  </command>
 ---------------------------------------------------
2024-05-24 09:25:46: xmlchange success <command> ./xmlchange JOB_WALLCLOCK_TIME=12:00:00  </command>
 ---------------------------------------------------
2024-05-24 09:25:57: case.submit starting 
 ---------------------------------------------------
2024-05-24 09:25:57: case.submit error 
ERROR: Command: 'qsub -q develop -l walltime=12:00:00 -A CESM0023 -l job_priority=regular  -W depend=afterok:4585111.desched1 -v ARGS_FOR_SCRIPT='--resubmit' case.st_archive' failed with error 'qsub: 
ERROR: your job has been rejected.

your declared wallclock time (43200 seconds)
exceeds your maximum limit of 21600 seconds
the queue limit is 21600 seconds

Please contact cislhelp@ucar.edu
for assistance' from dir '/glade/campaign/cesm/cesmdata/cseg/runs/cesm2_0/b.e23_alpha17f.BLT1850.ne30_t232.093'
 ---------------------------------------------------
2024-05-24 09:26:26: xmlchange success <command> ./xmlchange JOB_WALLCLOCK_TIME=12:00:00  </command>
 ---------------------------------------------------
2024-05-24 09:26:36: case.submit starting 
 ---------------------------------------------------
2024-05-24 09:26:36: case.submit error 
ERROR: Command: 'qsub -q develop -l walltime=12:00:00 -A CESM0023 -l job_priority=regular  -W depend=afterok:4585145.desched1 -v ARGS_FOR_SCRIPT='--resubmit' case.st_archive' failed with error 'qsub: 
ERROR: your job has been rejected.

your declared wallclock time (43200 seconds)
exceeds your maximum limit of 21600 seconds
the queue limit is 21600 seconds

Please contact cislhelp@ucar.edu
for assistance' from dir '/glade/campaign/cesm/cesmdata/cseg/runs/cesm2_0/b.e23_alpha17f.BLT1850.ne30_t232.093'
 ---------------------------------------------------
2024-05-24 09:27:12: case.run starting 4585145.desched1
 ---------------------------------------------------
2024-05-24 09:27:13: case.run starting 4585111.desched1
 ---------------------------------------------------
2024-05-24 09:27:17: case.run error 
[Errno 2] No such file or directory: '/glade/campaign/cesm/cesmdata/cseg/runs/cesm2_0/b.e23_alpha17f.BLT1850.ne30_t232.093/Buildconf/cism.input_data_list'
 ---------------------------------------------------
2024-05-24 09:27:18: model execution starting 4585145.desched1
 ---------------------------------------------------
2024-05-24 09:29:35: xmlchange success <command> ./xmlchange PROJECT=CESM0023,RESUBMIT=10,STOP_N=2,STOP_OPTION=nyears  </command>
 ---------------------------------------------------
2024-05-24 09:29:37: xmlchange success <command> ./xmlchange REST_OPTION=nyears,REST_N=1  </command>
 ---------------------------------------------------
2024-05-24 09:30:45: xmlchange success <command> ./xmlchange PROJECT=CESM0023,RESUBMIT=10,STOP_N=2,STOP_OPTION=nyears  </command>
 ---------------------------------------------------
2024-05-24 09:30:45: xmlchange success <command> ./xmlchange CHARGE_ACCOUNT=CESM0023,RESUBMIT=10,STOP_N=2,STOP_OPTION=nyears  </command>
 ---------------------------------------------------
2024-05-24 09:30:46: xmlchange success <command> ./xmlchange REST_OPTION=nyears,REST_N=1  </command>
 ---------------------------------------------------
2024-05-24 09:32:29: xmlchange success <command> ./xmlchange PROJECT=CESM0023,RESUBMIT=10,STOP_N=2,STOP_OPTION=nyears  </command>
 ---------------------------------------------------
2024-05-24 09:32:29: xmlchange success <command> ./xmlchange CHARGE_ACCOUNT=CESM0023,RESUBMIT=10,STOP_N=2,STOP_OPTION=nyears  </command>
 ---------------------------------------------------
2024-05-24 09:32:29: xmlchange success <command> ./xmlchange REST_OPTION=nyears,REST_N=1  </command>
 ---------------------------------------------------
2024-05-24 09:32:30: xmlchange success <command> ./xmlchange JOB_WALLCLOCK_TIME=6:00:00  </command>
 ---------------------------------------------------
2024-05-24 09:34:27: case.submit starting 4585190.desched1
 ---------------------------------------------------
2024-05-24 09:34:27: case.submit success 4585190.desched1
 ---------------------------------------------------
2024-05-24 09:34:43: case.run starting 4585189.desched1
 ---------------------------------------------------
2024-05-24 09:34:50: model execution starting 4585189.desched1
 ---------------------------------------------------
2024-05-24 09:35:59: case.submit starting 4585201.desched1
 ---------------------------------------------------
2024-05-24 09:35:59: case.submit success 4585201.desched1
 ---------------------------------------------------
2024-05-24 09:36:17: case.run starting 4585200.desched1
 ---------------------------------------------------
2024-05-24 09:36:21: model execution starting 4585200.desched1
 ---------------------------------------------------
2024-05-24 11:03:36: xmlchange success <command> ./xmlchange --append CAM_CONFIG_OPTS=-rad rrtmgp  </command>
 ---------------------------------------------------
2024-05-24 11:11:24: case.build starting 
 ---------------------------------------------------
2024-05-24 11:11:25: case.build error 
ERROR: 
ERROR env_build HAS CHANGED
  A manual clean of your obj directories is required
  You should execute the following:
    ./case.build --clean-all

 ---------------------------------------------------
2024-05-24 11:39:40: build.clean starting 
 ---------------------------------------------------
2024-05-24 11:39:43: build.clean success 
 ---------------------------------------------------
2024-05-24 11:40:08: case.build starting 
 ---------------------------------------------------
2024-05-24 11:53:52: case.build success 
 ---------------------------------------------------
2024-05-24 11:54:23: case.submit starting 4587433.desched1
 ---------------------------------------------------
2024-05-24 11:54:23: case.submit success 4587433.desched1
 ---------------------------------------------------
2024-05-24 11:54:40: case.run starting 4587431.desched1
 ---------------------------------------------------
2024-05-24 11:54:47: model execution starting 4587431.desched1
 ---------------------------------------------------
2024-05-24 16:38:53: model execution success 4587431.desched1
 ---------------------------------------------------
2024-05-24 16:38:53: case.run success 4587431.desched1
 ---------------------------------------------------
2024-05-24 16:39:14: st_archive starting 4587433.desched1
 ---------------------------------------------------
2024-05-24 16:39:43: st_archive success 4587433.desched1
 ---------------------------------------------------
2024-05-24 16:39:46: case.submit starting 4590226.desched1
 ---------------------------------------------------
2024-05-24 16:39:46: case.submit success 4590226.desched1
 ---------------------------------------------------
2024-05-24 16:45:52: case.run starting 4590225.desched1
 ---------------------------------------------------
2024-05-24 16:46:01: model execution starting 4590225.desched1
 ---------------------------------------------------
2024-05-24 21:37:00: model execution success 4590225.desched1
 ---------------------------------------------------
2024-05-24 21:37:00: case.run success 4590225.desched1
 ---------------------------------------------------
2024-05-24 22:02:11: st_archive starting 4590226.desched1
 ---------------------------------------------------
2024-05-24 22:02:42: st_archive success 4590226.desched1
 ---------------------------------------------------
2024-05-24 22:02:46: case.submit starting 4592535.desched1
 ---------------------------------------------------
2024-05-24 22:02:46: case.submit success 4592535.desched1
 ---------------------------------------------------
2024-05-24 22:05:15: case.run starting 4592534.desched1
 ---------------------------------------------------
2024-05-24 22:05:22: model execution starting 4592534.desched1
 ---------------------------------------------------
2024-05-25 02:52:59: model execution success 4592534.desched1
 ---------------------------------------------------
2024-05-25 02:52:59: case.run success 4592534.desched1
 ---------------------------------------------------
2024-05-25 02:53:20: st_archive starting 4592535.desched1
 ---------------------------------------------------
2024-05-25 02:53:49: st_archive success 4592535.desched1
 ---------------------------------------------------
2024-05-25 02:53:49: case.submit starting 4593536.desched1
 ---------------------------------------------------
2024-05-25 02:53:49: case.submit success 4593536.desched1
 ---------------------------------------------------
2024-05-25 03:44:09: case.run starting 4593535.desched1
 ---------------------------------------------------
2024-05-25 03:44:15: model execution starting 4593535.desched1
 ---------------------------------------------------
2024-05-25 08:29:00: model execution success 4593535.desched1
 ---------------------------------------------------
2024-05-25 08:29:00: case.run success 4593535.desched1
 ---------------------------------------------------
2024-05-25 08:29:16: st_archive starting 4593536.desched1
 ---------------------------------------------------
2024-05-25 08:29:46: st_archive success 4593536.desched1
 ---------------------------------------------------
2024-05-25 08:29:47: case.submit starting 4595349.desched1
 ---------------------------------------------------
2024-05-25 08:29:47: case.submit success 4595349.desched1
 ---------------------------------------------------
2024-05-25 08:30:03: case.run starting 4595348.desched1
 ---------------------------------------------------
2024-05-25 08:30:10: model execution starting 4595348.desched1
 ---------------------------------------------------
2024-05-25 13:16:06: model execution success 4595348.desched1
 ---------------------------------------------------
2024-05-25 13:16:06: case.run success 4595348.desched1
 ---------------------------------------------------
2024-05-25 13:16:24: st_archive starting 4595349.desched1
 ---------------------------------------------------
2024-05-25 13:16:57: st_archive success 4595349.desched1
 ---------------------------------------------------
2024-05-25 13:16:57: case.submit starting 4596864.desched1
 ---------------------------------------------------
2024-05-25 13:16:57: case.submit success 4596864.desched1
 ---------------------------------------------------
2024-05-25 13:17:19: case.run starting 4596863.desched1
 ---------------------------------------------------
2024-05-25 13:17:29: model execution starting 4596863.desched1
 ---------------------------------------------------
2024-05-25 18:04:37: model execution success 4596863.desched1
 ---------------------------------------------------
2024-05-25 18:04:37: case.run success 4596863.desched1
 ---------------------------------------------------
2024-05-25 18:04:56: st_archive starting 4596864.desched1
 ---------------------------------------------------
2024-05-25 18:05:28: st_archive success 4596864.desched1
 ---------------------------------------------------
2024-05-25 18:05:28: case.submit starting 4598165.desched1
 ---------------------------------------------------
2024-05-25 18:05:28: case.submit success 4598165.desched1
 ---------------------------------------------------
2024-05-25 18:05:44: case.run starting 4598164.desched1
 ---------------------------------------------------
2024-05-25 18:05:49: model execution starting 4598164.desched1
 ---------------------------------------------------
2024-05-25 22:52:09: model execution success 4598164.desched1
 ---------------------------------------------------
2024-05-25 22:52:09: case.run success 4598164.desched1
 ---------------------------------------------------
2024-05-25 23:48:47: st_archive starting 4598165.desched1
 ---------------------------------------------------
2024-05-25 23:49:17: st_archive success 4598165.desched1
 ---------------------------------------------------
2024-05-25 23:49:18: case.submit starting 4600181.desched1
 ---------------------------------------------------
2024-05-25 23:49:18: case.submit success 4600181.desched1
 ---------------------------------------------------
2024-05-25 23:49:53: case.run starting 4600180.desched1
 ---------------------------------------------------
2024-05-25 23:49:59: model execution starting 4600180.desched1
 ---------------------------------------------------
2024-05-26 04:37:42: model execution success 4600180.desched1
 ---------------------------------------------------
2024-05-26 04:37:42: case.run success 4600180.desched1
 ---------------------------------------------------
2024-05-26 04:37:58: st_archive starting 4600181.desched1
 ---------------------------------------------------
2024-05-26 04:38:27: st_archive success 4600181.desched1
 ---------------------------------------------------
2024-05-26 04:38:27: case.submit starting 4601561.desched1
 ---------------------------------------------------
2024-05-26 04:38:27: case.submit success 4601561.desched1
 ---------------------------------------------------
2024-05-26 04:50:36: case.run starting 4601560.desched1
 ---------------------------------------------------
2024-05-26 04:50:41: model execution starting 4601560.desched1
 ---------------------------------------------------
2024-05-26 09:35:52: model execution success 4601560.desched1
 ---------------------------------------------------
2024-05-26 09:35:52: case.run success 4601560.desched1
 ---------------------------------------------------
2024-05-26 09:36:06: st_archive starting 4601561.desched1
 ---------------------------------------------------
2024-05-26 09:36:35: st_archive success 4601561.desched1
 ---------------------------------------------------
2024-05-26 09:36:35: case.submit starting 4603032.desched1
 ---------------------------------------------------
2024-05-26 09:36:35: case.submit success 4603032.desched1
 ---------------------------------------------------
2024-05-26 09:36:52: case.run starting 4603031.desched1
 ---------------------------------------------------
2024-05-26 09:36:58: model execution starting 4603031.desched1
 ---------------------------------------------------
2024-05-26 14:22:02: model execution success 4603031.desched1
 ---------------------------------------------------
2024-05-26 14:22:02: case.run success 4603031.desched1
 ---------------------------------------------------
2024-05-26 14:22:17: st_archive starting 4603032.desched1
 ---------------------------------------------------
2024-05-26 14:22:46: st_archive success 4603032.desched1
 ---------------------------------------------------
2024-05-26 14:22:47: case.submit starting 4604557.desched1
 ---------------------------------------------------
2024-05-26 14:22:47: case.submit success 4604557.desched1
 ---------------------------------------------------
2024-05-26 14:23:03: case.run starting 4604556.desched1
 ---------------------------------------------------
2024-05-26 14:23:09: model execution starting 4604556.desched1
 ---------------------------------------------------
2024-05-26 19:07:55: model execution success 4604556.desched1
 ---------------------------------------------------
2024-05-26 19:07:55: case.run success 4604556.desched1
 ---------------------------------------------------
2024-05-26 19:08:11: st_archive starting 4604557.desched1
 ---------------------------------------------------
2024-05-26 19:08:40: st_archive success 4604557.desched1
 ---------------------------------------------------
