update_ocn_f = .true.
f_fresh = 'mxxxx'
f_fresh_ai = 'mxxxx'
saltflux_option = 'prognostic'
