histaux_atm2med_file1_enabled = .true.
histaux_atm2med_file2_enabled = .true.
histaux_atm2med_file3_enabled = .true.
histaux_atm2med_file4_enabled = .true.
histaux_atm2med_file5_enabled = .true.
