!----------------------------------------------------------------------------------
! Settings from cmip6_carbon_isotopes
! CAN ONLY USE THIS IF STARTING FROM AN INITIAL FILE THAT HAS ISOTOPES
!----------------------------------------------------------------------------------

!use_c13 = .true.
!use_c14 = .true.
!use_c13_timeseries = .true.
!use_c14_bombspike = .true.

!----------------------------------------------------------------------------------
! Atm forcings for validation
!----------------------------------------------------------------------------------
hist_fincl1 = 'FSDSND','FSDSVD','FSDSNI','FSDSVI','RAIN_FROM_ATM','SNOW_FROM_ATM','FLDS_NOT_DOWNSCALED','ZBOT','Tair_from_atm','Thair_from_atm','QBOT_NOT_DOWNSCALED','PBOT_NOT_DOWNSCALED','Rho_from_atm','PCO2','UWIND','VWIND','BCPHIDRY','BCPHODRY','BCPHIWET','OCPHIDRY','OCPHODRY','OCPHIWET','DSTWET1','DSTDRY1','DSTWET2','DSTDRY2','DSTWET3','DSTDRY3','DSTWET4','DSTDRY4','ATM_TOPO'

!----------------------------------------------------------------------------------
! New surface dataset
!----------------------------------------------------------------------------------
fsurdat = '/glade/work/slevis/git/mksurfdata_toolchain/tools/mksurfdata_esmf/surfdata_ne30np4.pg3_SSP5-8.5_78pfts_CMIP6_1850-2100_c230227.nc'

!----------------------------------------------------------------------------------
! Reset snow per https://github.com/NCAR/amwg_dev/issues/245
!----------------------------------------------------------------------------------
reset_snow = .true.
reset_snow_glc = .true.

!----------------------------------------------------------------------------------
! Use finidat file from end of a 26 series run per https://github.com/NCAR/amwg_dev/issues/245.
! This file was used to initialize b.e23_alpha14a.BLT1850.ne30_t232.032
!----------------------------------------------------------------------------------
use_init_interp = .true.
finidat = '/glade/p/cesmdata/cseg/inputdata/cesm2_init/b.cesm3_cam058_mom_e.B1850MOM.f09_L32_t061.cam6_cice5.016/0058-01-01/b.cesm3_cam058_mom_e.B1850MOM.f09_L32_t061.cam6_cice5.016.clm2.r.0058-01-01-00000.nc'

