 check_finidat_year_consistency = .false.
 use_init_interp = .true. 
