histaux_l2x1yrg = .true
add_gusts = .false.
