 use_init_interp = .true. 
 fsurdat = '/glade/work/slevis/git/mksurfdata_toolchain/tools/mksurfdata_esmf/surfdata_ne30np4.pg3_SSP5-8.5_78pfts_CMIP6_1850-2100_c230227.nc'
 finidat = '/glade/p/cesmdata/cseg/inputdata/cesm2_init/b.cesm3_cam058_mom_e.B1850MOM.f09_L32_t061.cam6_cice5.016/0058-01-01/b.cesm3_cam058_mom_e.B1850MOM.f09_L32_t061.cam6_cice5.016.clm2.r.0058-01-01-00000.nc'
