bypass_routing_option = 'direct_to_outlet'
