use_init_interp = .true.
fsurdat = '/glade/work/slevis/git/mksurfdata_toolchain/tools/mksurfdata_esmf/surfdata_ne30np4.pg3_SSP5-8.5_78pfts_CMIP6_1850-2100_c230227.nc'
