 use_init_interp = .true. 
 finidat = '/glade/p/cesmdata/cseg/inputdata/cesm2_init/b.cesm3_cam058_mom_e.B1850MOM.f09_L32_t061.cam6_cice5.016/0058-01-01/b.cesm3_cam058_mom_e.B1850MOM.f09_L32_t061.cam6_cice5.016.clm2.r.0058-01-01-00000.nc'
