f_fresh = 'mxxxx'
f_fresh_ai = 'mxxxx'
ice_ic = '/glade/p/cesmdata/cseg/inputdata/cesm2_init/gmom.e23.GJRAv4.TL319_t061_zstar_N65.tx2_3v2.001/0061-01-01/gmom.e23.GJRAv4.TL319_t061_zstar_N65.tx2_3v2.001.cice.r.0061-01-01-00000.nc'
