use_init_interp = .true.

finidat = '/glade/campaign/cesm/cesmdata/cseg/inputdata/cesm2_init/b.e30_beta02.BLTHIST.ne30_t232.104/1900-01-01/b.e30_beta02.BLTHIST.ne30_t232.104.clm2.r.1900-01-01-00000.nc'
