add_gusts = .true.
ocn_surface_flux_scheme = 1
