use_init_interp = .true.
fsurdat = '/glade/work/slevis/git/mksurfdata_toolchain/tools/mksurfdata_esmf/surfdata_ne30np4.pg3_SSP5-8.5_78pfts_CMIP6_1850-2100_c230227.nc'
finidat='/glade/p/cgd/tss/people/oleson/CLM5_restarts/ctsm51_cesm23a14a_ne30pg3ne30pg3mg17_CPLHIST_1850pAD.clm2.r.0561-01-01-00000.nc'
