"MOM6 diagnostic fields table for CESM case: b.e23_alpha16b.BLT1850.ne30_t232.051"
1 1 1 0 0 0
### Section-1: File List
#========================
"b.e23_alpha16b.BLT1850.ne30_t232.051.mom6.h.frc%4yr-%2mo",                     1,  "months", 1, "days",   "time", 1, "months"
"b.e23_alpha16b.BLT1850.ne30_t232.051.mom6.h.rho2%4yr-%2mo",                    1,  "months", 1, "days",   "time", 1, "months"
"b.e23_alpha16b.BLT1850.ne30_t232.051.mom6.h.native%4yr-%2mo",                  1,  "months", 1, "days",   "time", 1, "months"
"b.e23_alpha16b.BLT1850.ne30_t232.051.mom6.h.z%4yr-%2mo",                       1,  "months", 1, "days",   "time", 1, "months"
"b.e23_alpha16b.BLT1850.ne30_t232.051.mom6.h.sfc%4yr-%2mo",                     1,  "days",   1, "days",   "time", 1, "months"
"b.e23_alpha16b.BLT1850.ne30_t232.051.mom6.h.static",                           -1, "days",   1, "days",   "time"
"b.e23_alpha16b.BLT1850.ne30_t232.051.mom6.h.Agulhas_Section%4yr-%2mo",           1,  "months", 1, "days",   "time", 1, "months"
"b.e23_alpha16b.BLT1850.ne30_t232.051.mom6.h.Barents_Opening%4yr-%2mo",           1,  "months", 1, "days",   "time", 1, "months"
"b.e23_alpha16b.BLT1850.ne30_t232.051.mom6.h.Bering_Strait%4yr-%2mo",             1,  "months", 1, "days",   "time", 1, "months"
"b.e23_alpha16b.BLT1850.ne30_t232.051.mom6.h.Davis_Strait%4yr-%2mo",              1,  "months", 1, "days",   "time", 1, "months"
"b.e23_alpha16b.BLT1850.ne30_t232.051.mom6.h.Denmark_Strait%4yr-%2mo",            1,  "months", 1, "days",   "time", 1, "months"
"b.e23_alpha16b.BLT1850.ne30_t232.051.mom6.h.Drake_Passage%4yr-%2mo",             1,  "months", 1, "days",   "time", 1, "months"
"b.e23_alpha16b.BLT1850.ne30_t232.051.mom6.h.English_Channel%4yr-%2mo",           1,  "months", 1, "days",   "time", 1, "months"
"b.e23_alpha16b.BLT1850.ne30_t232.051.mom6.h.Fram_Strait%4yr-%2mo",               1,  "months", 1, "days",   "time", 1, "months"
"b.e23_alpha16b.BLT1850.ne30_t232.051.mom6.h.Florida_Bahamas%4yr-%2mo",           1,  "months", 1, "days",   "time", 1, "months"
"b.e23_alpha16b.BLT1850.ne30_t232.051.mom6.h.Florida_Bahamas_extended%4yr-%2mo",  1,  "months", 1, "days",   "time", 1, "months"
"b.e23_alpha16b.BLT1850.ne30_t232.051.mom6.h.Florida_Cuba%4yr-%2mo",              1,  "months", 1, "days",   "time", 1, "months"
"b.e23_alpha16b.BLT1850.ne30_t232.051.mom6.h.Gibraltar_Strait%4yr-%2mo",          1,  "months", 1, "days",   "time", 1, "months"
"b.e23_alpha16b.BLT1850.ne30_t232.051.mom6.h.Iceland_Norway%4yr-%2mo",            1,  "months", 1, "days",   "time", 1, "months"
"b.e23_alpha16b.BLT1850.ne30_t232.051.mom6.h.Indonesian_Throughflow%4yr-%2mo",    1,  "months", 1, "days",   "time", 1, "months"
"b.e23_alpha16b.BLT1850.ne30_t232.051.mom6.h.Mozambique_Channel%4yr-%2mo",        1,  "months", 1, "days",   "time", 1, "months"
"b.e23_alpha16b.BLT1850.ne30_t232.051.mom6.h.Pacific_undercurrent%4yr-%2mo",      1,  "months", 1, "days",   "time", 1, "months"
"b.e23_alpha16b.BLT1850.ne30_t232.051.mom6.h.Taiwan_Luzon%4yr-%2mo",              1,  "months", 1, "days",   "time", 1, "months"
"b.e23_alpha16b.BLT1850.ne30_t232.051.mom6.h.Windward_Passage%4yr-%2mo",          1,  "months", 1, "days",   "time", 1, "months"
"b.e23_alpha16b.BLT1850.ne30_t232.051.mom6.h.Robeson_Channel%4yr-%2mo",           1,  "months", 1, "days",   "time", 1, "months"
"b.e23_alpha16b.BLT1850.ne30_t232.051.mom6.h.Yucatan_Channel%4yr-%2mo",           1,  "months", 1, "days",   "time", 1, "months"
"b.e23_alpha16b.BLT1850.ne30_t232.051.mom6.h.Bosporus_Strait%4yr-%2mo",           1,  "months", 1, "days",   "time", 1, "months"

### Section-2: Fields List
#=========================
# b.e23_alpha16b.BLT1850.ne30_t232.051.mom6.h.frc%4yr-%2mo
"ocean_model","taux","taux","b.e23_alpha16b.BLT1850.ne30_t232.051.mom6.h.frc%4yr-%2mo","all","mean","none", 2
"ocean_model","tauy","tauy","b.e23_alpha16b.BLT1850.ne30_t232.051.mom6.h.frc%4yr-%2mo","all","mean","none", 2
"ocean_model","ustar","ustar","b.e23_alpha16b.BLT1850.ne30_t232.051.mom6.h.frc%4yr-%2mo","all","mean","none", 2
# mass/vol
"ocean_model","PRCmE","PRCmE","b.e23_alpha16b.BLT1850.ne30_t232.051.mom6.h.frc%4yr-%2mo","all","mean","none", 2
"ocean_model","lprec","lprec","b.e23_alpha16b.BLT1850.ne30_t232.051.mom6.h.frc%4yr-%2mo","all","mean","none", 2
"ocean_model","fprec","fprec","b.e23_alpha16b.BLT1850.ne30_t232.051.mom6.h.frc%4yr-%2mo","all","mean","none", 2
"ocean_model","evap","evap","b.e23_alpha16b.BLT1850.ne30_t232.051.mom6.h.frc%4yr-%2mo","all","mean","none", 2
"ocean_model","vprec","vprec","b.e23_alpha16b.BLT1850.ne30_t232.051.mom6.h.frc%4yr-%2mo","all","mean","none", 2
"ocean_model","lrunoff","lrunoff","b.e23_alpha16b.BLT1850.ne30_t232.051.mom6.h.frc%4yr-%2mo","all","mean","none", 2
"ocean_model","frunoff","frunoff","b.e23_alpha16b.BLT1850.ne30_t232.051.mom6.h.frc%4yr-%2mo","all","mean","none", 2
"ocean_model","seaice_melt","seaice_melt","b.e23_alpha16b.BLT1850.ne30_t232.051.mom6.h.frc%4yr-%2mo","all","mean","none", 2
# heat
"ocean_model","net_heat_coupler","net_heat_coupler","b.e23_alpha16b.BLT1850.ne30_t232.051.mom6.h.frc%4yr-%2mo","all","mean","none", 2
"ocean_model","net_heat_surface","net_heat_surface","b.e23_alpha16b.BLT1850.ne30_t232.051.mom6.h.frc%4yr-%2mo","all","mean","none", 2
"ocean_model","frazil","frazil","b.e23_alpha16b.BLT1850.ne30_t232.051.mom6.h.frc%4yr-%2mo","all","mean","none", 2
"ocean_model","sensible","sensible","b.e23_alpha16b.BLT1850.ne30_t232.051.mom6.h.frc%4yr-%2mo","all","mean","none", 2
"ocean_model","latent","latent","b.e23_alpha16b.BLT1850.ne30_t232.051.mom6.h.frc%4yr-%2mo","all","mean","none", 2
"ocean_model","LwLatSens","LwLatSens","b.e23_alpha16b.BLT1850.ne30_t232.051.mom6.h.frc%4yr-%2mo","all","mean","none", 2
"ocean_model","SW","SW","b.e23_alpha16b.BLT1850.ne30_t232.051.mom6.h.frc%4yr-%2mo","all","mean","none", 2
"ocean_model","LW","LW","b.e23_alpha16b.BLT1850.ne30_t232.051.mom6.h.frc%4yr-%2mo","all","mean","none", 2
"ocean_model","Heat_PmE","Heat_PmE","b.e23_alpha16b.BLT1850.ne30_t232.051.mom6.h.frc%4yr-%2mo","all","mean","none", 2
"ocean_model","seaice_melt_heat","seaice_melt_heat","b.e23_alpha16b.BLT1850.ne30_t232.051.mom6.h.frc%4yr-%2mo","all","mean","none", 2
"ocean_model","heat_content_lrunoff","heat_content_lrunoff","b.e23_alpha16b.BLT1850.ne30_t232.051.mom6.h.frc%4yr-%2mo","all","mean","none", 2
"ocean_model","heat_content_frunoff","heat_content_frunoff","b.e23_alpha16b.BLT1850.ne30_t232.051.mom6.h.frc%4yr-%2mo","all","mean","none", 2
"ocean_model","heat_content_icemelt","heat_content_icemelt","b.e23_alpha16b.BLT1850.ne30_t232.051.mom6.h.frc%4yr-%2mo","all","mean","none", 2
"ocean_model","heat_content_lprec","heat_content_lprec","b.e23_alpha16b.BLT1850.ne30_t232.051.mom6.h.frc%4yr-%2mo","all","mean","none", 2
"ocean_model","heat_content_fprec","heat_content_fprec","b.e23_alpha16b.BLT1850.ne30_t232.051.mom6.h.frc%4yr-%2mo","all","mean","none", 2
"ocean_model","heat_content_vprec","heat_content_vprec","b.e23_alpha16b.BLT1850.ne30_t232.051.mom6.h.frc%4yr-%2mo","all","mean","none", 2
"ocean_model","heat_content_cond","heat_content_cond","b.e23_alpha16b.BLT1850.ne30_t232.051.mom6.h.frc%4yr-%2mo","all","mean","none", 2
"ocean_model","heat_content_evap","heat_content_evap","b.e23_alpha16b.BLT1850.ne30_t232.051.mom6.h.frc%4yr-%2mo","all","mean","none", 2
"ocean_model","heat_content_massout","heat_content_massout","b.e23_alpha16b.BLT1850.ne30_t232.051.mom6.h.frc%4yr-%2mo","all","mean","none", 2
"ocean_model","heat_content_massin","heat_content_massin","b.e23_alpha16b.BLT1850.ne30_t232.051.mom6.h.frc%4yr-%2mo","all","mean","none", 2
"ocean_model","heat_content_surfwater","heat_content_surfwater","b.e23_alpha16b.BLT1850.ne30_t232.051.mom6.h.frc%4yr-%2mo","all","mean","none", 2
"ocean_model","internal_heat","internal_heat","b.e23_alpha16b.BLT1850.ne30_t232.051.mom6.h.frc%4yr-%2mo","all","mean","none", 2
"ocean_model","heat_added","heat_added","b.e23_alpha16b.BLT1850.ne30_t232.051.mom6.h.frc%4yr-%2mo","all","mean","none", 2
"ocean_model","latent_evap","latent_evap","b.e23_alpha16b.BLT1850.ne30_t232.051.mom6.h.frc%4yr-%2mo","all","mean","none", 2
"ocean_model","latent_fprec_diag","latent_fprec_diag","b.e23_alpha16b.BLT1850.ne30_t232.051.mom6.h.frc%4yr-%2mo","all","mean","none", 2
"ocean_model","latent_frunoff","latent_frunoff","b.e23_alpha16b.BLT1850.ne30_t232.051.mom6.h.frc%4yr-%2mo","all","mean","none", 2
# others
"ocean_model","temp_int","temp_int","b.e23_alpha16b.BLT1850.ne30_t232.051.mom6.h.frc%4yr-%2mo","all","mean","none", 2
"ocean_model","salt_int","salt_int","b.e23_alpha16b.BLT1850.ne30_t232.051.mom6.h.frc%4yr-%2mo","all","mean","none", 2
"ocean_model","hfds","hfds","b.e23_alpha16b.BLT1850.ne30_t232.051.mom6.h.frc%4yr-%2mo","all","mean","none", 2
"ocean_model","p_surf","p_surf","b.e23_alpha16b.BLT1850.ne30_t232.051.mom6.h.frc%4yr-%2mo","all","mean","none", 2
"ocean_model","salt_flux","salt_flux","b.e23_alpha16b.BLT1850.ne30_t232.051.mom6.h.frc%4yr-%2mo","all","mean","none", 2
"ocean_model","salt_flux_in","salt_flux_in","b.e23_alpha16b.BLT1850.ne30_t232.051.mom6.h.frc%4yr-%2mo","all","mean","none", 2
"ocean_model","vprec_global_adjustment","vprec_global_adjustment","b.e23_alpha16b.BLT1850.ne30_t232.051.mom6.h.frc%4yr-%2mo","all","mean","none", 2
"ocean_model","net_fresh_water_global_adjustment","net_fresh_water_global_adjustment","b.e23_alpha16b.BLT1850.ne30_t232.051.mom6.h.frc%4yr-%2mo","all","mean","none", 2
"ocean_model","salt_flux_global_restoring_adjustment","salt_flux_global_restoring_adjustment","b.e23_alpha16b.BLT1850.ne30_t232.051.mom6.h.frc%4yr-%2mo","all",.true.,"none", 2
"ocean_model","net_massout","net_massout", "b.e23_alpha16b.BLT1850.ne30_t232.051.mom6.h.frc%4yr-%2mo", "all","mean","none", 2
"ocean_model","net_massin","net_massin",   "b.e23_alpha16b.BLT1850.ne30_t232.051.mom6.h.frc%4yr-%2mo", "all","mean","none", 2
"ocean_model", "geolon",     "geolon",     "b.e23_alpha16b.BLT1850.ne30_t232.051.mom6.h.frc%4yr-%2mo", "all",".false.","none", 2
"ocean_model", "geolat",     "geolat",     "b.e23_alpha16b.BLT1850.ne30_t232.051.mom6.h.frc%4yr-%2mo", "all",".false.","none", 2
"ocean_model", "geolon_c",   "geolon_c",   "b.e23_alpha16b.BLT1850.ne30_t232.051.mom6.h.frc%4yr-%2mo", "all",".false.","none", 2
"ocean_model", "geolat_c",   "geolat_c",   "b.e23_alpha16b.BLT1850.ne30_t232.051.mom6.h.frc%4yr-%2mo", "all",".false.","none", 2
"ocean_model", "geolon_u",   "geolon_u",   "b.e23_alpha16b.BLT1850.ne30_t232.051.mom6.h.frc%4yr-%2mo", "all",".false.","none", 2
"ocean_model", "geolat_u",   "geolat_u",   "b.e23_alpha16b.BLT1850.ne30_t232.051.mom6.h.frc%4yr-%2mo", "all",".false.","none", 2
"ocean_model", "geolon_v",   "geolon_v",   "b.e23_alpha16b.BLT1850.ne30_t232.051.mom6.h.frc%4yr-%2mo", "all",".false.","none", 2
"ocean_model", "geolat_v",   "geolat_v",   "b.e23_alpha16b.BLT1850.ne30_t232.051.mom6.h.frc%4yr-%2mo", "all",".false.","none", 2
"ocean_model", "area_t",     "area_t",     "b.e23_alpha16b.BLT1850.ne30_t232.051.mom6.h.frc%4yr-%2mo", "all",".false.","none", 2
"ocean_model", "depth_ocean","depth_ocean","b.e23_alpha16b.BLT1850.ne30_t232.051.mom6.h.frc%4yr-%2mo", "all",".false.","none", 2
"ocean_model", "wet",        "wet",        "b.e23_alpha16b.BLT1850.ne30_t232.051.mom6.h.frc%4yr-%2mo", "all",".false.","none", 2
"ocean_model", "wet_c",      "wet_c",      "b.e23_alpha16b.BLT1850.ne30_t232.051.mom6.h.frc%4yr-%2mo", "all",".false.","none", 2
"ocean_model", "wet_u",      "wet_u",      "b.e23_alpha16b.BLT1850.ne30_t232.051.mom6.h.frc%4yr-%2mo", "all",".false.","none", 2
"ocean_model", "wet_v",      "wet_v",      "b.e23_alpha16b.BLT1850.ne30_t232.051.mom6.h.frc%4yr-%2mo", "all",".false.","none", 2
"ocean_model", "Coriolis",   "Coriolis",   "b.e23_alpha16b.BLT1850.ne30_t232.051.mom6.h.frc%4yr-%2mo", "all",".false.","none", 2
"ocean_model", "sin_rot",    "sin_rot",    "b.e23_alpha16b.BLT1850.ne30_t232.051.mom6.h.frc%4yr-%2mo", "all",".false.","none", 2

# "b.e23_alpha16b.BLT1850.ne30_t232.051.mom6.h.rho2%4yr-%2mo"
"ocean_model_rho2", "volcello","volcello", "b.e23_alpha16b.BLT1850.ne30_t232.051.mom6.h.rho2%4yr-%2mo", "all", "mean", "none", 2
"ocean_model_rho2", "vmo",     "vmo",      "b.e23_alpha16b.BLT1850.ne30_t232.051.mom6.h.rho2%4yr-%2mo", "all", "mean", "none", 2
"ocean_model_rho2", "vhGM",    "vhGM",     "b.e23_alpha16b.BLT1850.ne30_t232.051.mom6.h.rho2%4yr-%2mo", "all", "mean", "none", 2
"ocean_model_rho2", "vhml",    "vhml",     "b.e23_alpha16b.BLT1850.ne30_t232.051.mom6.h.rho2%4yr-%2mo", "all", "mean", "none", 2
"ocean_model_rho2", "umo",     "umo",      "b.e23_alpha16b.BLT1850.ne30_t232.051.mom6.h.rho2%4yr-%2mo", "all", "mean", "none", 2
"ocean_model_rho2", "uhGM",    "uhGM",     "b.e23_alpha16b.BLT1850.ne30_t232.051.mom6.h.rho2%4yr-%2mo", "all", "mean", "none", 2
"ocean_model_rho2", "uhml",    "uhml",     "b.e23_alpha16b.BLT1850.ne30_t232.051.mom6.h.rho2%4yr-%2mo", "all", "mean", "none", 2
"ocean_model", "geolon",     "geolon",     "b.e23_alpha16b.BLT1850.ne30_t232.051.mom6.h.rho2%4yr-%2mo", "all", ".false.", "none", 2
"ocean_model", "geolat",     "geolat",     "b.e23_alpha16b.BLT1850.ne30_t232.051.mom6.h.rho2%4yr-%2mo", "all", ".false.", "none", 2
"ocean_model", "geolon_c",   "geolon_c",   "b.e23_alpha16b.BLT1850.ne30_t232.051.mom6.h.rho2%4yr-%2mo", "all", ".false.", "none", 2
"ocean_model", "geolat_c",   "geolat_c",   "b.e23_alpha16b.BLT1850.ne30_t232.051.mom6.h.rho2%4yr-%2mo", "all", ".false.", "none", 2
"ocean_model", "geolon_u",   "geolon_u",   "b.e23_alpha16b.BLT1850.ne30_t232.051.mom6.h.rho2%4yr-%2mo", "all", ".false.", "none", 2
"ocean_model", "geolat_u",   "geolat_u",   "b.e23_alpha16b.BLT1850.ne30_t232.051.mom6.h.rho2%4yr-%2mo", "all", ".false.", "none", 2
"ocean_model", "geolon_v",   "geolon_v",   "b.e23_alpha16b.BLT1850.ne30_t232.051.mom6.h.rho2%4yr-%2mo", "all", ".false.", "none", 2
"ocean_model", "geolat_v",   "geolat_v",   "b.e23_alpha16b.BLT1850.ne30_t232.051.mom6.h.rho2%4yr-%2mo", "all", ".false.", "none", 2
"ocean_model", "area_t",     "area_t",     "b.e23_alpha16b.BLT1850.ne30_t232.051.mom6.h.rho2%4yr-%2mo", "all", ".false.", "none", 2
"ocean_model", "depth_ocean","depth_ocean","b.e23_alpha16b.BLT1850.ne30_t232.051.mom6.h.rho2%4yr-%2mo", "all", ".false.", "none", 2
"ocean_model", "wet",        "wet",        "b.e23_alpha16b.BLT1850.ne30_t232.051.mom6.h.rho2%4yr-%2mo", "all", ".false.", "none", 2
"ocean_model", "wet_c",      "wet_c",      "b.e23_alpha16b.BLT1850.ne30_t232.051.mom6.h.rho2%4yr-%2mo", "all", ".false.", "none", 2
"ocean_model", "wet_u",      "wet_u",      "b.e23_alpha16b.BLT1850.ne30_t232.051.mom6.h.rho2%4yr-%2mo", "all", ".false.", "none", 2
"ocean_model", "wet_v",      "wet_v",      "b.e23_alpha16b.BLT1850.ne30_t232.051.mom6.h.rho2%4yr-%2mo", "all", ".false.", "none", 2
"ocean_model", "Coriolis",   "Coriolis",   "b.e23_alpha16b.BLT1850.ne30_t232.051.mom6.h.rho2%4yr-%2mo", "all", ".false.", "none", 2
"ocean_model", "sin_rot",    "sin_rot",    "b.e23_alpha16b.BLT1850.ne30_t232.051.mom6.h.rho2%4yr-%2mo", "all", ".false.", "none", 2

# "b.e23_alpha16b.BLT1850.ne30_t232.051.mom6.h.native%4yr-%2mo"
"ocean_model", "uo",           "uo",           "b.e23_alpha16b.BLT1850.ne30_t232.051.mom6.h.native%4yr-%2mo", "all", "mean", "none", 2
"ocean_model", "vo",           "vo",           "b.e23_alpha16b.BLT1850.ne30_t232.051.mom6.h.native%4yr-%2mo", "all", "mean", "none", 2
"ocean_model", "h",            "h",            "b.e23_alpha16b.BLT1850.ne30_t232.051.mom6.h.native%4yr-%2mo", "all", "mean", "none", 2
"ocean_model", "e",            "e",            "b.e23_alpha16b.BLT1850.ne30_t232.051.mom6.h.native%4yr-%2mo", "all", "mean", "none", 2
"ocean_model", "thetao",       "thetao",       "b.e23_alpha16b.BLT1850.ne30_t232.051.mom6.h.native%4yr-%2mo", "all", "mean", "none", 2
"ocean_model", "so",           "so",           "b.e23_alpha16b.BLT1850.ne30_t232.051.mom6.h.native%4yr-%2mo", "all", "mean", "none", 2
"ocean_model", "rhoinsitu",    "rhoinsitu",    "b.e23_alpha16b.BLT1850.ne30_t232.051.mom6.h.native%4yr-%2mo", "all", "mean", "none", 2
"ocean_model", "KE",           "KE",           "b.e23_alpha16b.BLT1850.ne30_t232.051.mom6.h.native%4yr-%2mo", "all", "mean", "none", 2
"ocean_model", "rhopot0",      "rhopot0",      "b.e23_alpha16b.BLT1850.ne30_t232.051.mom6.h.native%4yr-%2mo", "all", "mean", "none", 2
"ocean_model", "soga",         "soga",         "b.e23_alpha16b.BLT1850.ne30_t232.051.mom6.h.native%4yr-%2mo", "all", "mean", "none", 2
"ocean_model", "thetaoga",     "thetaoga",     "b.e23_alpha16b.BLT1850.ne30_t232.051.mom6.h.native%4yr-%2mo", "all", "mean", "none", 2
"ocean_model", "uh",           "uh",           "b.e23_alpha16b.BLT1850.ne30_t232.051.mom6.h.native%4yr-%2mo", "all", "mean", "none", 2
"ocean_model", "vh",           "vh",           "b.e23_alpha16b.BLT1850.ne30_t232.051.mom6.h.native%4yr-%2mo", "all", "mean", "none", 2
"ocean_model", "vhbt",         "vhbt",         "b.e23_alpha16b.BLT1850.ne30_t232.051.mom6.h.native%4yr-%2mo", "all", "mean", "none", 2
"ocean_model", "uhbt",         "uhbt",         "b.e23_alpha16b.BLT1850.ne30_t232.051.mom6.h.native%4yr-%2mo", "all", "mean", "none", 2
"ocean_model", "KPP_OBLdepth", "oml",          "b.e23_alpha16b.BLT1850.ne30_t232.051.mom6.h.native%4yr-%2mo", "all", "mean", "none", 2
"ocean_model", "SSH",          "SSH",          "b.e23_alpha16b.BLT1850.ne30_t232.051.mom6.h.native%4yr-%2mo", "all", "mean", "none", 2
"ocean_model", "tos",          "tos",          "b.e23_alpha16b.BLT1850.ne30_t232.051.mom6.h.native%4yr-%2mo", "all", "mean", "none", 2
"ocean_model", "sos",          "sos",          "b.e23_alpha16b.BLT1850.ne30_t232.051.mom6.h.native%4yr-%2mo", "all", "mean", "none", 2
"ocean_model", "SSU",          "SSU",          "b.e23_alpha16b.BLT1850.ne30_t232.051.mom6.h.native%4yr-%2mo", "all", "mean", "none", 2
"ocean_model", "SSV",          "SSV",          "b.e23_alpha16b.BLT1850.ne30_t232.051.mom6.h.native%4yr-%2mo", "all", "mean", "none", 2
"ocean_model", "mass_wt",      "mass_wt",      "b.e23_alpha16b.BLT1850.ne30_t232.051.mom6.h.native%4yr-%2mo", "all", "mean", "none", 2
"ocean_model", "opottempmint", "opottempmint", "b.e23_alpha16b.BLT1850.ne30_t232.051.mom6.h.native%4yr-%2mo", "all", "mean", "none", 2
"ocean_model", "somint",       "somint",       "b.e23_alpha16b.BLT1850.ne30_t232.051.mom6.h.native%4yr-%2mo", "all", "mean", "none", 2
"ocean_model", "Rd_dx",        "Rd_dx",        "b.e23_alpha16b.BLT1850.ne30_t232.051.mom6.h.native%4yr-%2mo", "all", "mean", "none", 2
"ocean_model", "speed",        "speed",        "b.e23_alpha16b.BLT1850.ne30_t232.051.mom6.h.native%4yr-%2mo", "all", "mean", "none", 2
"ocean_model", "mlotst",       "mlotst",       "b.e23_alpha16b.BLT1850.ne30_t232.051.mom6.h.native%4yr-%2mo", "all", "mean", "none", 2
"ocean_model", "diftrelo",     "diftrelo",     "b.e23_alpha16b.BLT1850.ne30_t232.051.mom6.h.native%4yr-%2mo", "all", "mean", "none", 2
"ocean_model", "diftrblo",     "diftrblo",     "b.e23_alpha16b.BLT1850.ne30_t232.051.mom6.h.native%4yr-%2mo", "all", "mean", "none", 2
"ocean_model", "difmxybo",     "difmxybo",     "b.e23_alpha16b.BLT1850.ne30_t232.051.mom6.h.native%4yr-%2mo", "all", "mean", "none", 2
"ocean_model", "difmxylo",     "difmxylo",     "b.e23_alpha16b.BLT1850.ne30_t232.051.mom6.h.native%4yr-%2mo", "all", "mean", "none", 2
"ocean_model", "volcello",     "volcello",     "b.e23_alpha16b.BLT1850.ne30_t232.051.mom6.h.native%4yr-%2mo", "all", "mean", "none", 2
"ocean_model", "vmo",          "vmo",          "b.e23_alpha16b.BLT1850.ne30_t232.051.mom6.h.native%4yr-%2mo", "all", "mean", "none", 2
"ocean_model", "vhGM",         "vhGM",         "b.e23_alpha16b.BLT1850.ne30_t232.051.mom6.h.native%4yr-%2mo", "all", "mean", "none", 2
"ocean_model", "vhml",         "vhml",         "b.e23_alpha16b.BLT1850.ne30_t232.051.mom6.h.native%4yr-%2mo", "all", "mean", "none", 2
"ocean_model", "umo",          "umo",          "b.e23_alpha16b.BLT1850.ne30_t232.051.mom6.h.native%4yr-%2mo", "all", "mean", "none", 2
"ocean_model", "uhGM",         "uhGM",         "b.e23_alpha16b.BLT1850.ne30_t232.051.mom6.h.native%4yr-%2mo", "all", "mean", "none", 2
"ocean_model", "uhml",         "uhml",         "b.e23_alpha16b.BLT1850.ne30_t232.051.mom6.h.native%4yr-%2mo", "all", "mean", "none", 2
"ocean_model", "agessc",       "agessc",       "b.e23_alpha16b.BLT1850.ne30_t232.051.mom6.h.native%4yr-%2mo", "all", "mean", "none", 2
"ocean_model", "T_ady_2d",     "T_ady_2d",     "b.e23_alpha16b.BLT1850.ne30_t232.051.mom6.h.native%4yr-%2mo", "all", "mean", "none", 2
"ocean_model", "T_adx_2d",     "T_adx_2d",     "b.e23_alpha16b.BLT1850.ne30_t232.051.mom6.h.native%4yr-%2mo", "all", "mean", "none", 2
"ocean_model", "T_diffy_2d",   "T_diffy_2d",   "b.e23_alpha16b.BLT1850.ne30_t232.051.mom6.h.native%4yr-%2mo", "all", "mean", "none", 2
"ocean_model", "T_diffx_2d",   "T_diffx_2d",   "b.e23_alpha16b.BLT1850.ne30_t232.051.mom6.h.native%4yr-%2mo", "all", "mean", "none", 2
"ocean_model", "T_hbd_diffx_2d", "T_hbd_diffx_2d",   "b.e23_alpha16b.BLT1850.ne30_t232.051.mom6.h.native%4yr-%2mo", "all", "mean", "none", 2
"ocean_model", "T_hbd_diffy_2d", "T_hbd_diffy_2d",   "b.e23_alpha16b.BLT1850.ne30_t232.051.mom6.h.native%4yr-%2mo", "all", "mean", "none", 2

"ocean_model", "dhdt", "dhdt", "b.e23_alpha16b.BLT1850.ne30_t232.051.mom6.h.native%4yr-%2mo", "all", "mean", "none", 2
"ocean_model", "dynamics_h_tendency", "dynamics_h_tendency", "b.e23_alpha16b.BLT1850.ne30_t232.051.mom6.h.native%4yr-%2mo", "all", "mean", "none", 2
"ocean_model", "vert_remap_h_tendency", "vert_remap_h_tendency", "b.e23_alpha16b.BLT1850.ne30_t232.051.mom6.h.native%4yr-%2mo", "all", "mean", "none", 2
"ocean_model", "boundary_forcing_h_tendency", "boundary_forcing_h_tendency", "b.e23_alpha16b.BLT1850.ne30_t232.051.mom6.h.native%4yr-%2mo", "all", "mean", "none", 2

"ocean_model", "opottemptend", "opottemptend", "b.e23_alpha16b.BLT1850.ne30_t232.051.mom6.h.native%4yr-%2mo", "all", "mean", "none", 2
"ocean_model", "opottempdiff", "opottempdiff", "b.e23_alpha16b.BLT1850.ne30_t232.051.mom6.h.native%4yr-%2mo", "all", "mean", "none", 2
"ocean_model", "opottemppmdiff", "opottemppmdiff", "b.e23_alpha16b.BLT1850.ne30_t232.051.mom6.h.native%4yr-%2mo", "all", "mean", "none", 2
"ocean_model", "boundary_forcing_heat_tendency", "boundary_forcing_heat_tendency", "b.e23_alpha16b.BLT1850.ne30_t232.051.mom6.h.native%4yr-%2mo", "all", "mean", "none", 2
"ocean_model", "frazil_heat_tendency", "frazil_heat_tendency", "b.e23_alpha16b.BLT1850.ne30_t232.051.mom6.h.native%4yr-%2mo", "all", "mean", "none", 2
"ocean_model", "T_advection_xy", "T_advection_xy", "b.e23_alpha16b.BLT1850.ne30_t232.051.mom6.h.native%4yr-%2mo", "all", "mean", "none", 2
"ocean_model", "Th_tendency_vert_remap", "Th_tendency_vert_remap", "b.e23_alpha16b.BLT1850.ne30_t232.051.mom6.h.native%4yr-%2mo", "all", "mean", "none", 2
"ocean_model", "KPP_NLT_temp_budget", "KPP_NLT_temp_budget", "b.e23_alpha16b.BLT1850.ne30_t232.051.mom6.h.native%4yr-%2mo", "all", "mean", "none", 2
"ocean_model", "T_hbdxy_cont_tendency", "T_hbdxy_cont_tendency", "b.e23_alpha16b.BLT1850.ne30_t232.051.mom6.h.native%4yr-%2mo", "all", "mean", "none", 2

"ocean_model", "T_adx", "T_adx", "b.e23_alpha16b.BLT1850.ne30_t232.051.mom6.h.native%4yr-%2mo", "all", "mean", "none", 2
"ocean_model", "T_ady", "T_ady", "b.e23_alpha16b.BLT1850.ne30_t232.051.mom6.h.native%4yr-%2mo", "all", "mean", "none", 2

"ocean_model", "osalttend", "osalttend", "b.e23_alpha16b.BLT1850.ne30_t232.051.mom6.h.native%4yr-%2mo", "all", "mean", "none", 2
"ocean_model", "osaltdiff", "osaltdiff", "b.e23_alpha16b.BLT1850.ne30_t232.051.mom6.h.native%4yr-%2mo", "all", "mean", "none", 2
"ocean_model", "osaltpmdiff", "osaltpmdiff", "b.e23_alpha16b.BLT1850.ne30_t232.051.mom6.h.native%4yr-%2mo", "all", "mean", "none", 2
"ocean_model", "boundary_forcing_salt_tendency", "boundary_forcing_salt_tendency", "b.e23_alpha16b.BLT1850.ne30_t232.051.mom6.h.native%4yr-%2mo", "all", "mean", "none", 2
"ocean_model", "frazil_salt_tendency", "frazil_salt_tendency", "b.e23_alpha16b.BLT1850.ne30_t232.051.mom6.h.native%4yr-%2mo", "all", "mean", "none", 2
"ocean_model", "S_advection_xy", "S_advection_xy", "b.e23_alpha16b.BLT1850.ne30_t232.051.mom6.h.native%4yr-%2mo", "all", "mean", "none", 2
"ocean_model", "Sh_tendency_vert_remap", "Sh_tendency_vert_remap", "b.e23_alpha16b.BLT1850.ne30_t232.051.mom6.h.native%4yr-%2mo", "all", "mean", "none", 2
"ocean_model", "KPP_NLT_saln_budget", "KPP_NLT_saln_budget", "b.e23_alpha16b.BLT1850.ne30_t232.051.mom6.h.native%4yr-%2mo", "all", "mean", "none", 2
"ocean_model", "S_hbdxy_cont_tendency", "S_hbdxy_cont_tendency", "b.e23_alpha16b.BLT1850.ne30_t232.051.mom6.h.native%4yr-%2mo", "all", "mean", "none", 2
"ocean_model", "S_adx", "S_adx",           "b.e23_alpha16b.BLT1850.ne30_t232.051.mom6.h.native%4yr-%2mo", "all", "mean", "none", 2
"ocean_model", "S_ady", "S_ady",           "b.e23_alpha16b.BLT1850.ne30_t232.051.mom6.h.native%4yr-%2mo", "all", "mean", "none", 2
"ocean_model", "geolon",     "geolon",     "b.e23_alpha16b.BLT1850.ne30_t232.051.mom6.h.native%4yr-%2mo", "all", ".false.", "none", 2
"ocean_model", "geolat",     "geolat",     "b.e23_alpha16b.BLT1850.ne30_t232.051.mom6.h.native%4yr-%2mo", "all", ".false.", "none", 2
"ocean_model", "geolon_c",   "geolon_c",   "b.e23_alpha16b.BLT1850.ne30_t232.051.mom6.h.native%4yr-%2mo", "all", ".false.", "none", 2
"ocean_model", "geolat_c",   "geolat_c",   "b.e23_alpha16b.BLT1850.ne30_t232.051.mom6.h.native%4yr-%2mo", "all", ".false.", "none", 2
"ocean_model", "geolon_u",   "geolon_u",   "b.e23_alpha16b.BLT1850.ne30_t232.051.mom6.h.native%4yr-%2mo", "all", ".false.", "none", 2
"ocean_model", "geolat_u",   "geolat_u",   "b.e23_alpha16b.BLT1850.ne30_t232.051.mom6.h.native%4yr-%2mo", "all", ".false.", "none", 2
"ocean_model", "geolon_v",   "geolon_v",   "b.e23_alpha16b.BLT1850.ne30_t232.051.mom6.h.native%4yr-%2mo", "all", ".false.", "none", 2
"ocean_model", "geolat_v",   "geolat_v",   "b.e23_alpha16b.BLT1850.ne30_t232.051.mom6.h.native%4yr-%2mo", "all", ".false.", "none", 2
"ocean_model", "area_t",     "area_t",     "b.e23_alpha16b.BLT1850.ne30_t232.051.mom6.h.native%4yr-%2mo", "all", ".false.", "none", 2
"ocean_model", "depth_ocean","depth_ocean","b.e23_alpha16b.BLT1850.ne30_t232.051.mom6.h.native%4yr-%2mo", "all", ".false.", "none", 2
"ocean_model", "wet",        "wet",        "b.e23_alpha16b.BLT1850.ne30_t232.051.mom6.h.native%4yr-%2mo", "all", ".false.", "none", 2
"ocean_model", "wet_c",      "wet_c",      "b.e23_alpha16b.BLT1850.ne30_t232.051.mom6.h.native%4yr-%2mo", "all", ".false.", "none", 2
"ocean_model", "wet_u",      "wet_u",      "b.e23_alpha16b.BLT1850.ne30_t232.051.mom6.h.native%4yr-%2mo", "all", ".false.", "none", 2
"ocean_model", "wet_v",      "wet_v",      "b.e23_alpha16b.BLT1850.ne30_t232.051.mom6.h.native%4yr-%2mo", "all", ".false.", "none", 2
"ocean_model", "Coriolis",   "Coriolis",   "b.e23_alpha16b.BLT1850.ne30_t232.051.mom6.h.native%4yr-%2mo", "all", ".false.", "none", 2
"ocean_model", "sin_rot",    "sin_rot",    "b.e23_alpha16b.BLT1850.ne30_t232.051.mom6.h.native%4yr-%2mo", "all", ".false.", "none", 2

# "b.e23_alpha16b.BLT1850.ne30_t232.051.mom6.h.z%4yr-%2mo"
"ocean_model_z", "volcello", "volcello", "b.e23_alpha16b.BLT1850.ne30_t232.051.mom6.h.z%4yr-%2mo", "all", "mean", "none", 2
"ocean_model_z", "uo",       "uo",       "b.e23_alpha16b.BLT1850.ne30_t232.051.mom6.h.z%4yr-%2mo", "all", "mean", "none", 2
"ocean_model_z", "vo",       "vo",       "b.e23_alpha16b.BLT1850.ne30_t232.051.mom6.h.z%4yr-%2mo", "all", "mean", "none", 2
"ocean_model_z", "h",        "h",        "b.e23_alpha16b.BLT1850.ne30_t232.051.mom6.h.z%4yr-%2mo", "all", "mean", "none", 2
"ocean_model_z", "e",        "e",        "b.e23_alpha16b.BLT1850.ne30_t232.051.mom6.h.z%4yr-%2mo", "all", "mean", "none", 2
"ocean_model_z", "thetao",   "thetao",   "b.e23_alpha16b.BLT1850.ne30_t232.051.mom6.h.z%4yr-%2mo", "all", "mean", "none", 2
"ocean_model_z", "so",       "so",       "b.e23_alpha16b.BLT1850.ne30_t232.051.mom6.h.z%4yr-%2mo", "all", "mean", "none", 2
"ocean_model_z", "rhoinsitu","rhoinsitu","b.e23_alpha16b.BLT1850.ne30_t232.051.mom6.h.z%4yr-%2mo", "all", "mean", "none", 2
"ocean_model_z", "KE",       "KE",       "b.e23_alpha16b.BLT1850.ne30_t232.051.mom6.h.z%4yr-%2mo", "all", "mean", "none", 2
"ocean_model_z", "rhopot0",  "rhopot0",  "b.e23_alpha16b.BLT1850.ne30_t232.051.mom6.h.z%4yr-%2mo", "all", "mean", "none", 2
"ocean_model_z", "vmo",          "vmo",    "b.e23_alpha16b.BLT1850.ne30_t232.051.mom6.h.z%4yr-%2mo", "all", "mean", "none", 2
"ocean_model_z", "vhGM",         "vhGM",   "b.e23_alpha16b.BLT1850.ne30_t232.051.mom6.h.z%4yr-%2mo", "all", "mean", "none", 2
"ocean_model_z", "vhml",         "vhml",   "b.e23_alpha16b.BLT1850.ne30_t232.051.mom6.h.z%4yr-%2mo", "all", "mean", "none", 2
"ocean_model_z", "umo",          "umo",    "b.e23_alpha16b.BLT1850.ne30_t232.051.mom6.h.z%4yr-%2mo", "all", "mean", "none", 2
"ocean_model_z", "uhGM",         "uhGM",   "b.e23_alpha16b.BLT1850.ne30_t232.051.mom6.h.z%4yr-%2mo", "all", "mean", "none", 2
"ocean_model_z", "uhml",         "uhml",   "b.e23_alpha16b.BLT1850.ne30_t232.051.mom6.h.z%4yr-%2mo", "all", "mean", "none", 2
"ocean_model_z", "agessc",       "agessc", "b.e23_alpha16b.BLT1850.ne30_t232.051.mom6.h.z%4yr-%2mo", "all", "mean", "none", 2
"ocean_model", "geolon",     "geolon",     "b.e23_alpha16b.BLT1850.ne30_t232.051.mom6.h.z%4yr-%2mo", "all", ".false.", "none", 2
"ocean_model", "geolat",     "geolat",     "b.e23_alpha16b.BLT1850.ne30_t232.051.mom6.h.z%4yr-%2mo", "all", ".false.", "none", 2
"ocean_model", "geolon_c",   "geolon_c",   "b.e23_alpha16b.BLT1850.ne30_t232.051.mom6.h.z%4yr-%2mo", "all", ".false.", "none", 2
"ocean_model", "geolat_c",   "geolat_c",   "b.e23_alpha16b.BLT1850.ne30_t232.051.mom6.h.z%4yr-%2mo", "all", ".false.", "none", 2
"ocean_model", "geolon_u",   "geolon_u",   "b.e23_alpha16b.BLT1850.ne30_t232.051.mom6.h.z%4yr-%2mo", "all", ".false.", "none", 2
"ocean_model", "geolat_u",   "geolat_u",   "b.e23_alpha16b.BLT1850.ne30_t232.051.mom6.h.z%4yr-%2mo", "all", ".false.", "none", 2