&clm_inparm
 finidat = 'b.e11.B1850C5CN.f09_g16.005.clm2.r.0402-01-01-00000.nc'
 
/
