&cam_inparm
 dtime = 1800
 ncdata='b.e11.B1850C5CN.f09_g16.005.cam.i.0402-01-01-00000.nc'
 
 co2vmr=284.7e-6
 start_ymd = 00010101 
 
 co2vmr          = 284.7e-6
/
