&MOM_input_nml
    output_directory = './'
    restart_input_dir = './'
    restart_output_dir = './'
    parameter_filename = 'MOM_input', 'MOM_override'
/

&fms_nml
    clock_grain = 'ROUTINE'
    clock_flags = 'NONE'
    domains_stack_size = 5000000
    stack_size = 0
/

&diag_manager_nml
    flush_nc_files = .true.
    use_mpp_io = .true.
/

